<?xml version="1.0" encoding="UTF-8"?>

<!-- generated on 2025-12-05 07:33:10 by Eclipse SUMO netedit Version 1.24.0
<neteditConfiguration xmlns:xsi="http://www.w3.org/2001/XMLSchema-instance" xsi:noNamespaceSchemaLocation="http://sumo.dlr.de/xsd/neteditConfiguration.xsd">

    <input>
        <sumo-net-file value="/Users/chaklader/PycharmProjects/SignalSyncPro/infrastructure/developed/drl/multi_agent/network/common.net.xml"/>
    </input>

    <output>
        <output-file value="/Users/chaklader/PycharmProjects/SignalSyncPro/infrastructure/developed/drl/multi_agent/network/common.net.xml"/>
    </output>

    <processing>
        <geometry.min-radius.fix.railways value="false"/>
        <geometry.avoid-overlap value="false"/>
        <geometry.max-grade.fix value="false"/>
        <offset.disable-normalization value="true"/>
        <lefthand value="0"/>
    </processing>

    <junctions>
        <no-turnarounds value="true"/>
        <junctions.corner-detail value="5"/>
        <junctions.limit-turn-speed value="5.50"/>
        <rectangular-lane-cut value="0"/>
    </junctions>

    <pedestrian>
        <walkingareas value="0"/>
    </pedestrian>

</neteditConfiguration>
-->

<net version="1.20" junctionCornerDetail="5" limitTurnSpeed="5.50" avoidOverlap="0" xmlns:xsi="http://www.w3.org/2001/XMLSchema-instance" xsi:noNamespaceSchemaLocation="http://sumo.dlr.de/xsd/net_file.xsd">

    <location netOffset="1100.00,1100.00" convBoundary="0.00,0.00,6200.00,2200.00" origBoundary="-1100.00,-1100.00,5100.00,1100.00" projParameter="!"/>

    <edge id=":1_0" function="internal">
        <lane id=":1_0_0" index="0" speed="13.89" length="0.10" shape="100.00,1101.60 100.00,1101.60"/>
    </edge>
    <edge id=":1_1" function="internal">
        <lane id=":1_1_0" index="0" speed="13.89" length="0.10" shape="100.00,1098.40 100.00,1098.40"/>
    </edge>
    <edge id=":10_0" function="internal">
        <lane id=":10_0_0" index="0" speed="13.89" length="8.40" shape="1095.20,999.00 1095.70,996.54 1096.80,995.00 1097.90,993.46 1098.40,991.00"/>
        <lane id=":10_0_1" index="1" speed="13.89" length="8.40" shape="1098.40,999.00 1098.40,991.00"/>
    </edge>
    <edge id=":10_2" function="internal">
        <lane id=":10_2_0" index="0" speed="13.89" length="8.40" shape="1101.60,991.00 1102.10,993.46 1103.20,995.00 1104.30,996.54 1104.80,999.00"/>
        <lane id=":10_2_1" index="1" speed="13.89" length="8.40" shape="1101.60,991.00 1101.60,999.00"/>
    </edge>
    <edge id=":11_0" function="internal">
        <lane id=":11_0_0" index="0" speed="13.89" length="8.40" shape="1098.40,1209.00 1097.90,1206.54 1096.80,1205.00 1095.70,1203.46 1095.20,1201.00"/>
        <lane id=":11_0_1" index="1" speed="13.89" length="8.40" shape="1098.40,1209.00 1098.40,1201.00"/>
    </edge>
    <edge id=":11_2" function="internal">
        <lane id=":11_2_0" index="0" speed="13.89" length="8.40" shape="1104.80,1201.00 1104.30,1203.46 1103.20,1205.00 1102.10,1206.54 1101.60,1209.00"/>
        <lane id=":11_2_1" index="1" speed="13.89" length="8.40" shape="1101.60,1201.00 1101.60,1209.00"/>
    </edge>
    <edge id=":12_0" function="internal">
        <lane id=":12_0_0" index="0" speed="13.89" length="0.10" shape="1098.40,2100.00 1098.40,2100.00"/>
    </edge>
    <edge id=":12_1" function="internal">
        <lane id=":12_1_0" index="0" speed="13.89" length="0.10" shape="1101.60,2100.00 1101.60,2100.00"/>
    </edge>
    <edge id=":13_0" function="internal">
        <lane id=":13_0_0" index="0" speed="13.89" length="0.10" shape="2098.40,100.00 2098.40,100.00"/>
    </edge>
    <edge id=":13_1" function="internal">
        <lane id=":13_1_0" index="0" speed="13.89" length="0.10" shape="2101.60,100.00 2101.60,100.00"/>
    </edge>
    <edge id=":14_0" function="internal">
        <lane id=":14_0_0" index="0" speed="13.89" length="8.40" shape="2095.20,999.00 2095.70,996.54 2096.80,995.00 2097.90,993.46 2098.40,991.00"/>
        <lane id=":14_0_1" index="1" speed="13.89" length="8.40" shape="2098.40,999.00 2098.40,991.00"/>
    </edge>
    <edge id=":14_2" function="internal">
        <lane id=":14_2_0" index="0" speed="13.89" length="8.40" shape="2101.60,991.00 2102.10,993.46 2103.20,995.00 2104.30,996.54 2104.80,999.00"/>
        <lane id=":14_2_1" index="1" speed="13.89" length="8.40" shape="2101.60,991.00 2101.60,999.00"/>
    </edge>
    <edge id=":15_0" function="internal">
        <lane id=":15_0_0" index="0" speed="13.89" length="8.40" shape="2098.40,1209.00 2097.90,1206.54 2096.80,1205.00 2095.70,1203.46 2095.20,1201.00"/>
        <lane id=":15_0_1" index="1" speed="13.89" length="8.40" shape="2098.40,1209.00 2098.40,1201.00"/>
    </edge>
    <edge id=":15_2" function="internal">
        <lane id=":15_2_0" index="0" speed="13.89" length="8.40" shape="2104.80,1201.00 2104.30,1203.46 2103.20,1205.00 2102.10,1206.54 2101.60,1209.00"/>
        <lane id=":15_2_1" index="1" speed="13.89" length="8.40" shape="2101.60,1201.00 2101.60,1209.00"/>
    </edge>
    <edge id=":16_0" function="internal">
        <lane id=":16_0_0" index="0" speed="13.89" length="0.10" shape="2098.40,2100.00 2098.40,2100.00"/>
    </edge>
    <edge id=":16_1" function="internal">
        <lane id=":16_1_0" index="0" speed="13.89" length="0.10" shape="2101.60,2100.00 2101.60,2100.00"/>
    </edge>
    <edge id=":17_0" function="internal">
        <lane id=":17_0_0" index="0" speed="13.89" length="18.29" shape="3095.20,1107.98 3095.20,1089.69"/>
    </edge>
    <edge id=":17_1" function="internal">
        <lane id=":17_1_0" index="0" speed="7.46" length="2.69" shape="3098.40,1107.62 3097.84,1104.99"/>
    </edge>
    <edge id=":17_2" function="internal">
        <lane id=":17_2_0" index="0" speed="13.89" length="18.19" shape="3098.40,1107.62 3098.40,1089.43"/>
    </edge>
    <edge id=":17_3" function="internal">
        <lane id=":17_3_0" index="0" speed="8.75" length="17.17" shape="3098.40,1107.62 3099.15,1103.59 3101.40,1100.71 3105.15,1098.98 3110.40,1098.40"/>
    </edge>
    <edge id=":17_36" function="internal">
        <lane id=":17_36_0" index="0" speed="7.46" length="9.50" shape="3097.84,1104.99 3096.15,1103.11 3093.35,1101.98 3089.42,1101.60"/>
    </edge>
    <edge id=":17_4" function="internal">
        <lane id=":17_4_0" index="0" allow="pedestrian" speed="13.89" length="18.26" width="1.00" shape="3096.79,1107.84 3097.21,1102.43 3097.30,1098.71 3097.09,1094.99 3096.64,1089.57"/>
        <lane id=":17_4_1" index="1" allow="bicycle" speed="13.89" length="18.26" width="1.00" shape="3097.81,1107.66 3098.23,1102.28 3098.30,1098.58 3098.09,1094.88 3097.63,1089.49"/>
    </edge>
    <edge id=":17_6" function="internal">
        <lane id=":17_6_0" index="0" allow="bicycle" speed="7.11" length="13.25" width="1.00" shape="3098.82,1107.60 3098.47,1104.57 3096.78,1102.53 3093.76,1101.48 3089.40,1101.42"/>
    </edge>
    <edge id=":17_7" function="internal">
        <lane id=":17_7_0" index="0" allow="bicycle" speed="13.89" length="18.23" width="1.00" shape="3098.82,1107.60 3099.24,1102.21 3099.31,1098.51 3099.09,1094.80 3098.63,1089.41"/>
    </edge>
    <edge id=":17_8" function="internal">
        <lane id=":17_8_0" index="0" allow="bicycle" speed="8.87" length="1.61" width="1.00" shape="3098.82,1107.60 3099.25,1106.04"/>
    </edge>
    <edge id=":17_37" function="internal">
        <lane id=":17_37_0" index="0" allow="bicycle" speed="8.87" length="14.44" width="1.00" shape="3099.25,1106.04 3099.81,1104.02 3102.07,1101.34 3105.60,1099.56 3110.39,1098.68"/>
    </edge>
    <edge id=":17_9" function="internal">
        <lane id=":17_9_0" index="0" allow="pedestrian" speed="13.89" length="20.91" width="1.00" shape="3110.39,1103.35 3104.22,1102.88 3099.98,1102.73 3095.74,1102.90 3089.57,1103.41"/>
        <lane id=":17_9_1" index="1" allow="bicycle" speed="13.89" length="20.91" width="1.00" shape="3110.39,1102.35 3104.19,1101.88 3099.94,1101.73 3095.68,1101.90 3089.49,1102.41"/>
    </edge>
    <edge id=":17_11" function="internal">
        <lane id=":17_11_0" index="0" allow="bicycle" speed="7.06" length="13.01" width="1.00" shape="3110.39,1101.35 3106.12,1101.43 3103.15,1102.47 3101.49,1104.47 3101.13,1107.44"/>
    </edge>
    <edge id=":17_12" function="internal">
        <lane id=":17_12_0" index="0" allow="bicycle" speed="13.89" length="21.03" width="1.00" shape="3110.39,1101.35 3104.17,1100.87 3099.90,1100.72 3095.62,1100.91 3089.40,1101.42"/>
    </edge>
    <edge id=":17_13" function="internal">
        <lane id=":17_13_0" index="0" allow="bicycle" speed="9.49" length="4.09" width="1.00" shape="3110.39,1101.35 3106.40,1100.45"/>
    </edge>
    <edge id=":17_38" function="internal">
        <lane id=":17_38_0" index="0" allow="bicycle" speed="9.49" length="14.41" width="1.00" shape="3106.40,1100.45 3105.59,1100.27 3102.02,1097.92 3099.70,1094.30 3098.63,1089.41"/>
    </edge>
    <edge id=":17_14" function="internal">
        <lane id=":17_14_0" index="0" speed="13.89" length="20.70" shape="3110.39,1104.80 3089.69,1104.80"/>
    </edge>
    <edge id=":17_15" function="internal">
        <lane id=":17_15_0" index="0" speed="7.37" length="11.87" shape="3110.39,1101.60 3106.55,1101.96 3103.80,1103.05 3102.15,1104.86 3101.60,1107.40"/>
    </edge>
    <edge id=":17_16" function="internal">
        <lane id=":17_16_0" index="0" speed="13.89" length="20.97" shape="3110.39,1101.60 3089.42,1101.60"/>
    </edge>
    <edge id=":17_17" function="internal">
        <lane id=":17_17_0" index="0" speed="9.29" length="19.48" shape="3110.39,1101.60 3105.15,1100.84 3101.40,1098.56 3099.15,1094.75 3098.40,1089.43"/>
    </edge>
    <edge id=":17_18" function="internal">
        <lane id=":17_18_0" index="0" speed="13.89" length="18.25" shape="3104.80,1088.91 3104.80,1107.16"/>
    </edge>
    <edge id=":17_19" function="internal">
        <lane id=":17_19_0" index="0" speed="8.09" length="14.54" shape="3101.60,1089.17 3102.15,1093.21 3103.80,1096.09 3106.55,1097.82 3110.40,1098.40"/>
    </edge>
    <edge id=":17_20" function="internal">
        <lane id=":17_20_0" index="0" speed="13.89" length="18.23" shape="3101.60,1089.17 3101.60,1107.40"/>
    </edge>
    <edge id=":17_21" function="internal">
        <lane id=":17_21_0" index="0" speed="9.37" length="2.93" shape="3101.60,1089.17 3101.19,1092.07"/>
    </edge>
    <edge id=":17_39" function="internal">
        <lane id=":17_39_0" index="0" speed="9.37" length="16.92" shape="3101.19,1092.07 3100.84,1094.61 3098.55,1098.49 3094.75,1100.82 3089.42,1101.60"/>
    </edge>
    <edge id=":17_22" function="internal">
        <lane id=":17_22_0" index="0" allow="pedestrian" speed="13.89" length="18.30" width="1.00" shape="3103.34,1089.03 3102.91,1094.45 3102.68,1098.17 3102.74,1101.88 3103.13,1107.30"/>
        <lane id=":17_22_1" index="1" allow="bicycle" speed="13.89" length="18.30" width="1.00" shape="3102.33,1089.11 3101.90,1094.52 3101.68,1098.24 3101.74,1101.96 3102.13,1107.37"/>
    </edge>
    <edge id=":17_24" function="internal">
        <lane id=":17_24_0" index="0" allow="bicycle" speed="7.74" length="15.56" width="1.00" shape="3101.32,1089.19 3101.60,1093.63 3103.20,1096.69 3106.13,1098.38 3110.39,1098.68"/>
    </edge>
    <edge id=":17_25" function="internal">
        <lane id=":17_25_0" index="0" allow="bicycle" speed="13.89" length="18.28" width="1.00" shape="3101.32,1089.19 3100.89,1094.60 3100.68,1098.32 3100.74,1102.03 3101.13,1107.44"/>
    </edge>
    <edge id=":17_26" function="internal">
        <lane id=":17_26_0" index="0" allow="bicycle" speed="9.58" length="4.40" width="1.00" shape="3101.32,1089.19 3100.40,1093.50"/>
    </edge>
    <edge id=":17_40" function="internal">
        <lane id=":17_40_0" index="0" allow="bicycle" speed="9.58" length="14.45" width="1.00" shape="3100.40,1093.50 3100.26,1094.18 3097.91,1097.88 3094.30,1100.29 3089.40,1101.42"/>
    </edge>
    <edge id=":17_27" function="internal">
        <lane id=":17_27_0" index="0" speed="13.89" length="21.52" shape="3088.87,1095.20 3110.40,1095.20"/>
    </edge>
    <edge id=":17_28" function="internal">
        <lane id=":17_28_0" index="0" speed="8.13" length="14.70" shape="3089.15,1098.40 3093.19,1097.84 3096.09,1096.16 3097.82,1093.35 3098.40,1089.43"/>
    </edge>
    <edge id=":17_29" function="internal">
        <lane id=":17_29_0" index="0" speed="13.89" length="21.25" shape="3089.15,1098.40 3110.40,1098.40"/>
    </edge>
    <edge id=":17_30" function="internal">
        <lane id=":17_30_0" index="0" speed="8.80" length="17.39" shape="3089.15,1098.40 3094.59,1098.96 3098.49,1100.65 3100.82,1103.46 3101.60,1107.40"/>
    </edge>
    <edge id=":17_31" function="internal">
        <lane id=":17_31_0" index="0" allow="pedestrian" speed="13.89" length="21.41" width="1.00" shape="3088.99,1096.51 3095.33,1097.06 3099.69,1097.26 3104.05,1097.13 3110.40,1096.67"/>
        <lane id=":17_31_1" index="1" allow="bicycle" speed="13.89" length="21.41" width="1.00" shape="3089.07,1097.53 3095.39,1098.06 3099.73,1098.27 3104.07,1098.14 3110.40,1097.67"/>
    </edge>
    <edge id=":17_33" function="internal">
        <lane id=":17_33_0" index="0" allow="bicycle" speed="7.72" length="3.65" width="1.00" shape="3089.16,1098.54 3092.81,1098.35"/>
    </edge>
    <edge id=":17_34" function="internal">
        <lane id=":17_34_0" index="0" allow="bicycle" speed="13.89" length="21.28" width="1.00" shape="3089.16,1098.54 3095.45,1099.07 3099.77,1099.27 3104.10,1099.14 3110.39,1098.68"/>
    </edge>
    <edge id=":17_35" function="internal">
        <lane id=":17_35_0" index="0" allow="bicycle" speed="8.97" length="16.34" width="1.00" shape="3089.16,1098.54 3094.15,1099.47 3097.80,1101.26 3100.13,1103.92 3101.13,1107.44"/>
    </edge>
    <edge id=":17_41" function="internal">
        <lane id=":17_41_0" index="0" allow="bicycle" speed="7.72" length="12.01" width="1.00" shape="3092.81,1098.35 3093.61,1098.31 3096.67,1096.71 3098.35,1093.75 3098.63,1089.41"/>
    </edge>
    <edge id=":18_0" function="internal">
        <lane id=":18_0_0" index="0" speed="13.89" length="19.63" shape="4095.20,1110.27 4095.20,1090.63"/>
    </edge>
    <edge id=":18_1" function="internal">
        <lane id=":18_1_0" index="0" speed="7.92" length="3.88" shape="4098.40,1110.00 4097.85,1106.32 4097.76,1106.18"/>
    </edge>
    <edge id=":18_2" function="internal">
        <lane id=":18_2_0" index="0" speed="13.89" length="19.66" shape="4098.40,1110.00 4098.40,1090.34"/>
    </edge>
    <edge id=":18_3" function="internal">
        <lane id=":18_3_0" index="0" speed="9.18" length="19.02" shape="4098.40,1110.00 4099.15,1104.92 4101.40,1101.30 4105.15,1099.12 4110.40,1098.40"/>
    </edge>
    <edge id=":18_36" function="internal">
        <lane id=":18_36_0" index="0" speed="7.92" length="9.98" shape="4097.76,1106.18 4096.20,1103.70 4093.45,1102.12 4089.60,1101.60"/>
    </edge>
    <edge id=":18_4" function="internal">
        <lane id=":18_4_0" index="0" allow="pedestrian" speed="13.89" length="19.70" width="1.00" shape="4096.53,1110.15 4097.06,1104.33 4097.26,1100.33 4097.11,1096.32 4096.61,1090.50"/>
        <lane id=":18_4_1" index="1" allow="bicycle" speed="13.89" length="19.71" width="1.00" shape="4097.55,1110.07 4098.07,1104.24 4098.26,1100.24 4098.11,1096.23 4097.60,1090.41"/>
    </edge>
    <edge id=":18_6" function="internal">
        <lane id=":18_6_0" index="0" allow="bicycle" speed="7.49" length="14.81" width="1.00" shape="4098.56,1109.98 4098.33,1105.91 4096.76,1103.12 4093.86,1101.61 4089.60,1101.39"/>
    </edge>
    <edge id=":18_7" function="internal">
        <lane id=":18_7_0" index="0" allow="bicycle" speed="13.89" length="19.72" width="1.00" shape="4098.56,1109.98 4099.08,1104.16 4099.26,1100.15 4099.10,1096.14 4098.60,1090.32"/>
    </edge>
    <edge id=":18_8" function="internal">
        <lane id=":18_8_0" index="0" allow="bicycle" speed="9.44" length="7.16" width="1.00" shape="4098.56,1109.98 4099.67,1105.36 4101.02,1103.37"/>
    </edge>
    <edge id=":18_37" function="internal">
        <lane id=":18_37_0" index="0" allow="bicycle" speed="9.44" length="10.89" width="1.00" shape="4101.02,1103.37 4102.01,1101.92 4105.59,1099.68 4110.40,1098.63"/>
    </edge>
    <edge id=":18_9" function="internal">
        <lane id=":18_9_0" index="0" allow="pedestrian" speed="13.89" length="20.83" width="1.00" shape="4110.39,1103.31 4104.23,1102.86 4099.99,1102.72 4095.76,1102.90 4089.60,1103.40"/>
        <lane id=":18_9_1" index="1" allow="bicycle" speed="13.89" length="20.83" width="1.00" shape="4110.39,1102.30 4104.23,1101.86 4100.00,1101.72 4095.76,1101.89 4089.60,1102.39"/>
    </edge>
    <edge id=":18_11" function="internal">
        <lane id=":18_11_0" index="0" allow="bicycle" speed="7.51" length="14.71" width="1.00" shape="4110.39,1101.30 4106.13,1101.54 4103.20,1103.03 4101.60,1105.77 4101.33,1109.75"/>
    </edge>
    <edge id=":18_12" function="internal">
        <lane id=":18_12_0" index="0" allow="bicycle" speed="13.89" length="20.83" width="1.00" shape="4110.39,1101.30 4104.23,1100.85 4100.00,1100.71 4095.76,1100.89 4089.60,1101.39"/>
    </edge>
    <edge id=":18_13" function="internal">
        <lane id=":18_13_0" index="0" allow="bicycle" speed="9.33" length="17.77" width="1.00" shape="4110.39,1101.30 4105.59,1100.30 4102.02,1098.14 4099.69,1094.81 4098.60,1090.32"/>
    </edge>
    <edge id=":18_14" function="internal">
        <lane id=":18_14_0" index="0" speed="13.89" length="20.79" shape="4110.39,1104.80 4089.60,1104.80"/>
    </edge>
    <edge id=":18_15" function="internal">
        <lane id=":18_15_0" index="0" speed="7.86" length="13.65" shape="4110.39,1101.60 4106.55,1102.11 4103.80,1103.63 4102.15,1106.17 4101.60,1109.73"/>
    </edge>
    <edge id=":18_16" function="internal">
        <lane id=":18_16_0" index="0" speed="13.89" length="20.79" shape="4110.39,1101.60 4089.60,1101.60"/>
    </edge>
    <edge id=":18_17" function="internal">
        <lane id=":18_17_0" index="0" speed="9.12" length="18.76" shape="4110.39,1101.60 4105.15,1100.90 4101.40,1098.78 4099.15,1095.26 4098.40,1090.34"/>
    </edge>
    <edge id=":18_18" function="internal">
        <lane id=":18_18_0" index="0" speed="13.89" length="19.71" shape="4104.80,1089.75 4104.80,1109.46"/>
    </edge>
    <edge id=":18_19" function="internal">
        <lane id=":18_19_0" index="0" speed="7.91" length="13.83" shape="4101.60,1090.04 4102.15,1093.70 4103.80,1096.31 4106.55,1097.88 4110.40,1098.40"/>
    </edge>
    <edge id=":18_20" function="internal">
        <lane id=":18_20_0" index="0" speed="13.89" length="19.68" shape="4101.60,1090.04 4101.60,1109.73"/>
    </edge>
    <edge id=":18_21" function="internal">
        <lane id=":18_21_0" index="0" speed="9.18" length="3.21" shape="4101.60,1090.04 4101.13,1093.21"/>
    </edge>
    <edge id=":18_38" function="internal">
        <lane id=":18_38_0" index="0" speed="9.18" length="15.79" shape="4101.13,1093.21 4100.85,1095.10 4098.60,1098.71 4094.85,1100.88 4089.60,1101.60"/>
    </edge>
    <edge id=":18_22" function="internal">
        <lane id=":18_22_0" index="0" allow="pedestrian" speed="13.89" length="19.73" width="1.00" shape="4103.27,1089.89 4102.85,1095.73 4102.71,1099.74 4102.86,1103.75 4103.32,1109.58"/>
        <lane id=":18_22_1" index="1" allow="bicycle" speed="13.89" length="19.73" width="1.00" shape="4102.26,1089.98 4101.84,1095.82 4101.70,1099.83 4101.86,1103.83 4102.33,1109.67"/>
    </edge>
    <edge id=":18_24" function="internal">
        <lane id=":18_24_0" index="0" allow="bicycle" speed="7.55" length="14.86" width="1.00" shape="4101.25,1090.07 4101.56,1094.13 4103.18,1096.90 4106.13,1098.40 4110.40,1098.63"/>
    </edge>
    <edge id=":18_25" function="internal">
        <lane id=":18_25_0" index="0" allow="bicycle" speed="13.89" length="19.71" width="1.00" shape="4101.25,1090.07 4100.83,1095.91 4100.70,1099.91 4100.86,1103.92 4101.33,1109.75"/>
    </edge>
    <edge id=":18_26" function="internal">
        <lane id=":18_26_0" index="0" allow="bicycle" speed="9.34" length="7.07" width="1.00" shape="4101.25,1090.07 4100.23,1094.68 4098.92,1096.63"/>
    </edge>
    <edge id=":18_39" function="internal">
        <lane id=":18_39_0" index="0" allow="bicycle" speed="9.34" length="10.86" width="1.00" shape="4098.92,1096.63 4097.95,1098.10 4094.41,1100.33 4089.60,1101.39"/>
    </edge>
    <edge id=":18_27" function="internal">
        <lane id=":18_27_0" index="0" allow="pedestrian" speed="13.89" length="20.83" width="1.00" shape="4089.61,1096.66 4095.77,1097.12 4100.00,1097.28 4104.24,1097.11 4110.40,1096.62"/>
        <lane id=":18_27_1" index="1" allow="bicycle" speed="13.89" length="20.83" width="1.00" shape="4089.61,1097.66 4095.77,1098.13 4100.00,1098.28 4104.24,1098.11 4110.40,1097.63"/>
    </edge>
    <edge id=":18_29" function="internal">
        <lane id=":18_29_0" index="0" allow="bicycle" speed="7.46" length="14.61" width="1.00" shape="4089.61,1098.66 4093.86,1098.44 4096.77,1096.97 4098.35,1094.27 4098.60,1090.32"/>
    </edge>
    <edge id=":18_30" function="internal">
        <lane id=":18_30_0" index="0" allow="bicycle" speed="13.89" length="20.83" width="1.00" shape="4089.61,1098.66 4095.77,1099.13 4100.00,1099.28 4104.23,1099.12 4110.40,1098.63"/>
    </edge>
    <edge id=":18_31" function="internal">
        <lane id=":18_31_0" index="0" allow="bicycle" speed="9.32" length="17.80" width="1.00" shape="4089.61,1098.66 4094.41,1099.68 4097.97,1101.87 4100.27,1105.23 4101.33,1109.75"/>
    </edge>
    <edge id=":18_32" function="internal">
        <lane id=":18_32_0" index="0" speed="13.89" length="20.79" shape="4089.61,1095.20 4110.40,1095.20"/>
    </edge>
    <edge id=":18_33" function="internal">
        <lane id=":18_33_0" index="0" speed="7.84" length="4.18" shape="4089.61,1098.40 4093.45,1097.90 4093.72,1097.75"/>
    </edge>
    <edge id=":18_34" function="internal">
        <lane id=":18_34_0" index="0" speed="13.89" length="20.79" shape="4089.61,1098.40 4110.40,1098.40"/>
    </edge>
    <edge id=":18_35" function="internal">
        <lane id=":18_35_0" index="0" speed="9.13" length="18.81" shape="4089.61,1098.40 4094.85,1099.11 4098.60,1101.23 4100.85,1104.77 4101.60,1109.73"/>
    </edge>
    <edge id=":18_40" function="internal">
        <lane id=":18_40_0" index="0" speed="7.84" length="9.42" shape="4093.72,1097.75 4096.20,1096.38 4097.85,1093.86 4098.40,1090.34"/>
    </edge>
    <edge id=":19_0" function="internal">
        <lane id=":19_0_0" index="0" speed="13.89" length="18.26" shape="5095.20,1111.08 5095.20,1092.81"/>
    </edge>
    <edge id=":19_1" function="internal">
        <lane id=":19_1_0" index="0" speed="8.09" length="4.26" shape="5098.40,1110.82 5097.85,1106.79 5097.76,1106.62"/>
    </edge>
    <edge id=":19_2" function="internal">
        <lane id=":19_2_0" index="0" speed="13.89" length="18.26" shape="5098.40,1110.82 5098.40,1092.57"/>
    </edge>
    <edge id=":19_3" function="internal">
        <lane id=":19_3_0" index="0" speed="9.36" length="19.81" shape="5098.40,1110.82 5099.16,1105.39 5101.44,1101.51 5105.23,1099.18 5110.54,1098.40"/>
    </edge>
    <edge id=":19_36" function="internal">
        <lane id=":19_36_0" index="0" speed="8.09" length="10.27" shape="5097.76,1106.62 5096.20,1103.91 5093.45,1102.18 5089.61,1101.60"/>
    </edge>
    <edge id=":19_4" function="internal">
        <lane id=":19_4_0" index="0" allow="pedestrian" speed="13.89" length="18.33" width="1.00" shape="5096.57,1110.97 5097.05,1105.55 5097.30,1101.82 5097.25,1098.10 5096.86,1092.68"/>
        <lane id=":19_4_1" index="1" allow="bicycle" speed="13.89" length="18.33" width="1.00" shape="5097.58,1110.89 5098.05,1105.47 5098.30,1101.75 5098.25,1098.02 5097.86,1092.60"/>
    </edge>
    <edge id=":19_6" function="internal">
        <lane id=":19_6_0" index="0" allow="bicycle" speed="7.66" length="15.46" width="1.00" shape="5098.59,1110.81 5098.35,1106.38 5096.77,1103.34 5093.86,1101.70 5089.61,1101.46"/>
    </edge>
    <edge id=":19_7" function="internal">
        <lane id=":19_7_0" index="0" allow="bicycle" speed="13.89" length="18.32" width="1.00" shape="5098.59,1110.81 5099.06,1105.39 5099.30,1101.67 5099.25,1097.95 5098.86,1092.53"/>
    </edge>
    <edge id=":19_8" function="internal">
        <lane id=":19_8_0" index="0" allow="bicycle" speed="9.54" length="4.40" width="1.00" shape="5098.59,1110.81 5099.54,1106.51"/>
    </edge>
    <edge id=":19_37" function="internal">
        <lane id=":19_37_0" index="0" allow="bicycle" speed="9.54" length="14.40" width="1.00" shape="5099.54,1106.51 5099.69,1105.82 5102.06,1102.15 5105.68,1099.79 5110.57,1098.73"/>
    </edge>
    <edge id=":19_9" function="internal">
        <lane id=":19_9_0" index="0" speed="13.89" length="21.40" shape="5111.00,1104.80 5089.60,1104.80"/>
    </edge>
    <edge id=":19_10" function="internal">
        <lane id=":19_10_0" index="0" speed="8.12" length="14.63" shape="5110.77,1101.60 5106.76,1102.16 5103.89,1103.84 5102.17,1106.64 5101.60,1110.57"/>
    </edge>
    <edge id=":19_11" function="internal">
        <lane id=":19_11_0" index="0" speed="13.89" length="21.17" shape="5110.77,1101.60 5089.61,1101.60"/>
    </edge>
    <edge id=":19_12" function="internal">
        <lane id=":19_12_0" index="0" speed="8.79" length="17.35" shape="5110.77,1101.60 5105.36,1101.04 5101.49,1099.34 5099.17,1096.52 5098.40,1092.57"/>
    </edge>
    <edge id=":19_13" function="internal">
        <lane id=":19_13_0" index="0" allow="pedestrian" speed="13.89" length="21.36" width="1.00" shape="5110.91,1103.48 5104.60,1102.94 5100.26,1102.75 5095.92,1102.93 5089.60,1103.47"/>
        <lane id=":19_13_1" index="1" allow="bicycle" speed="13.89" length="21.29" width="1.00" shape="5110.84,1102.47 5104.54,1101.94 5100.22,1101.75 5095.90,1101.92 5089.60,1102.46"/>
    </edge>
    <edge id=":19_15" function="internal">
        <lane id=":19_15_0" index="0" allow="bicycle" speed="7.71" length="15.60" width="1.00" shape="5110.76,1101.46 5106.34,1101.69 5103.30,1103.29 5101.64,1106.25 5101.36,1110.59"/>
    </edge>
    <edge id=":19_16" function="internal">
        <lane id=":19_16_0" index="0" allow="bicycle" speed="13.89" length="21.21" width="1.00" shape="5110.76,1101.46 5104.49,1100.93 5100.18,1100.74 5095.87,1100.92 5089.61,1101.46"/>
    </edge>
    <edge id=":19_17" function="internal">
        <lane id=":19_17_0" index="0" allow="bicycle" speed="8.97" length="16.30" width="1.00" shape="5110.76,1101.46 5105.81,1100.53 5102.17,1098.73 5099.86,1096.06 5098.86,1092.53"/>
    </edge>
    <edge id=":19_18" function="internal">
        <lane id=":19_18_0" index="0" speed="13.89" length="18.32" shape="5104.80,1091.99 5104.80,1110.31"/>
    </edge>
    <edge id=":19_19" function="internal">
        <lane id=":19_19_0" index="0" speed="7.46" length="12.19" shape="5101.60,1092.34 5102.16,1094.99 5103.84,1096.88 5106.63,1098.02 5110.54,1098.40"/>
    </edge>
    <edge id=":19_20" function="internal">
        <lane id=":19_20_0" index="0" speed="13.89" length="18.23" shape="5101.60,1092.34 5101.60,1110.57"/>
    </edge>
    <edge id=":19_21" function="internal">
        <lane id=":19_21_0" index="0" speed="8.76" length="3.44" shape="5101.60,1092.34 5100.97,1095.72"/>
    </edge>
    <edge id=":19_38" function="internal">
        <lane id=":19_38_0" index="0" speed="8.76" length="13.76" shape="5100.97,1095.72 5100.85,1096.39 5098.60,1099.28 5094.85,1101.02 5089.61,1101.60"/>
    </edge>
    <edge id=":19_22" function="internal">
        <lane id=":19_22_0" index="0" allow="pedestrian" speed="13.89" length="18.24" width="1.00" shape="5103.11,1092.23 5102.75,1097.62 5102.69,1101.33 5102.90,1105.03 5103.35,1110.43"/>
        <lane id=":19_22_1" index="1" allow="bicycle" speed="13.89" length="18.24" width="1.00" shape="5102.10,1092.30 5101.74,1097.70 5101.69,1101.40 5101.91,1105.11 5102.35,1110.51"/>
    </edge>
    <edge id=":19_24" function="internal">
        <lane id=":19_24_0" index="0" allow="bicycle" speed="7.19" length="13.35" width="1.00" shape="5101.09,1092.37 5101.48,1095.43 5103.19,1097.51 5106.22,1098.61 5110.57,1098.73"/>
    </edge>
    <edge id=":19_25" function="internal">
        <lane id=":19_25_0" index="0" allow="bicycle" speed="13.89" length="18.25" width="1.00" shape="5101.09,1092.37 5100.73,1097.77 5100.69,1101.48 5100.91,1105.19 5101.36,1110.59"/>
    </edge>
    <edge id=":19_26" function="internal">
        <lane id=":19_26_0" index="0" allow="bicycle" speed="8.88" length="4.57" width="1.00" shape="5101.09,1092.37 5100.14,1095.97 5099.60,1096.63"/>
    </edge>
    <edge id=":19_39" function="internal">
        <lane id=":19_39_0" index="0" allow="bicycle" speed="8.88" length="11.51" width="1.00" shape="5099.60,1096.63 5097.91,1098.69 5094.40,1100.52 5089.61,1101.46"/>
    </edge>
    <edge id=":19_27" function="internal">
        <lane id=":19_27_0" index="0" allow="pedestrian" speed="13.89" length="20.89" width="1.00" shape="5089.61,1096.57 5095.78,1097.09 5100.01,1097.28 5104.25,1097.16 5110.43,1096.74"/>
        <lane id=":19_27_1" index="1" allow="bicycle" speed="13.89" length="20.89" width="1.00" shape="5089.61,1097.58 5095.80,1098.09 5100.05,1098.28 5104.30,1098.16 5110.50,1097.73"/>
    </edge>
    <edge id=":19_29" function="internal">
        <lane id=":19_29_0" index="0" allow="bicycle" speed="7.04" length="13.00" width="1.00" shape="5089.61,1098.58 5093.88,1098.53 5096.84,1097.50 5098.50,1095.50 5098.86,1092.53"/>
    </edge>
    <edge id=":19_30" function="internal">
        <lane id=":19_30_0" index="0" allow="bicycle" speed="13.89" length="21.00" width="1.00" shape="5089.61,1098.58 5095.82,1099.10 5100.08,1099.29 5104.35,1099.16 5110.57,1098.73"/>
    </edge>
    <edge id=":19_31" function="internal">
        <lane id=":19_31_0" index="0" allow="bicycle" speed="9.52" length="18.52" width="1.00" shape="5089.61,1098.58 5094.41,1099.69 5097.97,1102.06 5100.29,1105.69 5101.36,1110.59"/>
    </edge>