<?xml version="1.0" encoding="UTF-8"?>

<!-- generated on 2025-11-23 13:38:03 by Eclipse SUMO netconvert Version 1.24.0
<netconvertConfiguration xmlns:xsi="http://www.w3.org/2001/XMLSchema-instance" xsi:noNamespaceSchemaLocation="http://sumo.dlr.de/xsd/netconvertConfiguration.xsd">

    <input>
        <node-files value="common.nod.xml"/>
        <edge-files value="common.edg.xml"/>
        <connection-files value="common.con.xml"/>
    </input>

    <output>
        <output-file value="common.net.xml"/>
    </output>

    <pedestrian>
        <sidewalks.guess value="true"/>
        <sidewalks.guess.max-speed value="13.89"/>
    </pedestrian>

    <bicycle>
        <bikelanes.guess value="true"/>
        <bikelanes.guess.max-speed value="13.89"/>
    </bicycle>

</netconvertConfiguration>
-->

<net version="1.20" junctionCornerDetail="5" limitTurnSpeed="5.50" xmlns:xsi="http://www.w3.org/2001/XMLSchema-instance" xsi:noNamespaceSchemaLocation="http://sumo.dlr.de/xsd/net_file.xsd">

    <location netOffset="1100.00,1100.00" convBoundary="0.00,0.00,6200.00,2200.00" origBoundary="-1100.00,-1100.00,5100.00,1100.00" projParameter="!"/>

    <edge id=":1_0" function="internal">
        <lane id=":1_0_0" index="0" allow="bicycle" speed="13.89" length="0.10" width="1.00" shape="100.00,1103.70 100.00,1103.70"/>
        <lane id=":1_0_1" index="1" disallow="pedestrian bicycle" speed="13.89" length="0.10" shape="100.00,1101.60 100.00,1101.60"/>
    </edge>
    <edge id=":1_2" function="internal">
        <lane id=":1_2_0" index="0" allow="bicycle" speed="13.89" length="0.10" width="1.00" shape="100.00,1096.30 100.00,1096.30"/>
        <lane id=":1_2_1" index="1" disallow="pedestrian bicycle" speed="13.89" length="0.10" shape="100.00,1098.40 100.00,1098.40"/>
    </edge>
    <edge id=":10_0" function="internal">
        <lane id=":10_0_0" index="0" allow="bicycle" speed="13.89" length="8.54" width="1.00" shape="1093.10,999.00 1093.60,996.54 1094.70,995.00 1095.80,993.46 1096.30,991.00"/>
        <lane id=":10_0_1" index="1" disallow="pedestrian bicycle" speed="13.89" length="8.54" shape="1095.20,999.00 1095.70,996.54 1096.80,995.00 1097.90,993.46 1098.40,991.00"/>
        <lane id=":10_0_2" index="2" disallow="pedestrian bicycle" speed="13.89" length="8.54" shape="1098.40,999.00 1098.40,991.00"/>
    </edge>
    <edge id=":10_3" function="internal">
        <lane id=":10_3_0" index="0" allow="bicycle" speed="13.89" length="8.54" width="1.00" shape="1103.70,991.00 1104.20,993.46 1105.30,995.00 1106.40,996.54 1106.90,999.00"/>
        <lane id=":10_3_1" index="1" disallow="pedestrian bicycle" speed="13.89" length="8.54" shape="1101.60,991.00 1102.10,993.46 1103.20,995.00 1104.30,996.54 1104.80,999.00"/>
        <lane id=":10_3_2" index="2" disallow="pedestrian bicycle" speed="13.89" length="8.54" shape="1101.60,991.00 1101.60,999.00"/>
    </edge>
    <edge id=":11_0" function="internal">
        <lane id=":11_0_0" index="0" allow="bicycle" speed="13.89" length="8.81" width="1.00" shape="1096.30,1209.00 1095.80,1206.54 1094.70,1205.00 1093.60,1203.46 1093.10,1201.00"/>
        <lane id=":11_0_1" index="1" disallow="pedestrian bicycle" speed="13.89" length="8.81" shape="1098.40,1209.00 1097.90,1206.54 1096.80,1205.00 1095.70,1203.46 1095.20,1201.00"/>
    </edge>
    <edge id=":11_2" function="internal">
        <lane id=":11_2_0" index="0" allow="bicycle" speed="13.89" length="8.54" width="1.00" shape="1106.90,1201.00 1106.40,1203.46 1105.30,1205.00 1104.20,1206.54 1103.70,1209.00"/>
        <lane id=":11_2_1" index="1" disallow="pedestrian bicycle" speed="13.89" length="8.54" shape="1104.80,1201.00 1104.30,1203.46 1103.20,1205.00 1102.10,1206.54 1101.60,1209.00"/>
        <lane id=":11_2_2" index="2" disallow="pedestrian bicycle" speed="13.89" length="8.54" shape="1101.60,1201.00 1101.60,1209.00"/>
    </edge>
    <edge id=":12_0" function="internal">
        <lane id=":12_0_0" index="0" allow="bicycle" speed="13.89" length="0.10" width="1.00" shape="1096.30,2100.00 1096.30,2100.00"/>
        <lane id=":12_0_1" index="1" disallow="pedestrian bicycle" speed="13.89" length="0.10" shape="1098.40,2100.00 1098.40,2100.00"/>
    </edge>
    <edge id=":12_2" function="internal">
        <lane id=":12_2_0" index="0" allow="bicycle" speed="13.89" length="0.10" width="1.00" shape="1103.70,2100.00 1103.70,2100.00"/>
        <lane id=":12_2_1" index="1" disallow="pedestrian bicycle" speed="13.89" length="0.10" shape="1101.60,2100.00 1101.60,2100.00"/>
    </edge>
    <edge id=":13_0" function="internal">
        <lane id=":13_0_0" index="0" allow="bicycle" speed="13.89" length="0.10" width="1.00" shape="2096.30,100.00 2096.30,100.00"/>
        <lane id=":13_0_1" index="1" disallow="pedestrian bicycle" speed="13.89" length="0.10" shape="2098.40,100.00 2098.40,100.00"/>
    </edge>
    <edge id=":13_2" function="internal">
        <lane id=":13_2_0" index="0" allow="bicycle" speed="13.89" length="0.10" width="1.00" shape="2103.70,100.00 2103.70,100.00"/>
        <lane id=":13_2_1" index="1" disallow="pedestrian bicycle" speed="13.89" length="0.10" shape="2101.60,100.00 2101.60,100.00"/>
    </edge>
    <edge id=":14_0" function="internal">
        <lane id=":14_0_0" index="0" allow="bicycle" speed="13.89" length="8.54" width="1.00" shape="2093.10,999.00 2093.60,996.54 2094.70,995.00 2095.80,993.46 2096.30,991.00"/>
        <lane id=":14_0_1" index="1" disallow="pedestrian bicycle" speed="13.89" length="8.54" shape="2095.20,999.00 2095.70,996.54 2096.80,995.00 2097.90,993.46 2098.40,991.00"/>
        <lane id=":14_0_2" index="2" disallow="pedestrian bicycle" speed="13.89" length="8.54" shape="2098.40,999.00 2098.40,991.00"/>
    </edge>
    <edge id=":14_3" function="internal">
        <lane id=":14_3_0" index="0" allow="bicycle" speed="13.89" length="8.54" width="1.00" shape="2103.70,991.00 2104.20,993.46 2105.30,995.00 2106.40,996.54 2106.90,999.00"/>
        <lane id=":14_3_1" index="1" disallow="pedestrian bicycle" speed="13.89" length="8.54" shape="2101.60,991.00 2102.10,993.46 2103.20,995.00 2104.30,996.54 2104.80,999.00"/>
        <lane id=":14_3_2" index="2" disallow="pedestrian bicycle" speed="13.89" length="8.54" shape="2101.60,991.00 2101.60,999.00"/>
    </edge>
    <edge id=":15_0" function="internal">
        <lane id=":15_0_0" index="0" allow="bicycle" speed="13.89" length="8.81" width="1.00" shape="2096.30,1209.00 2095.80,1206.54 2094.70,1205.00 2093.60,1203.46 2093.10,1201.00"/>
        <lane id=":15_0_1" index="1" disallow="pedestrian bicycle" speed="13.89" length="8.81" shape="2098.40,1209.00 2097.90,1206.54 2096.80,1205.00 2095.70,1203.46 2095.20,1201.00"/>
    </edge>
    <edge id=":15_2" function="internal">
        <lane id=":15_2_0" index="0" allow="bicycle" speed="13.89" length="8.54" width="1.00" shape="2106.90,1201.00 2106.40,1203.46 2105.30,1205.00 2104.20,1206.54 2103.70,1209.00"/>
        <lane id=":15_2_1" index="1" disallow="pedestrian bicycle" speed="13.89" length="8.54" shape="2104.80,1201.00 2104.30,1203.46 2103.20,1205.00 2102.10,1206.54 2101.60,1209.00"/>
        <lane id=":15_2_2" index="2" disallow="pedestrian bicycle" speed="13.89" length="8.54" shape="2101.60,1201.00 2101.60,1209.00"/>
    </edge>
    <edge id=":16_0" function="internal">
        <lane id=":16_0_0" index="0" allow="bicycle" speed="13.89" length="0.10" width="1.00" shape="2096.30,2100.00 2096.30,2100.00"/>
        <lane id=":16_0_1" index="1" disallow="pedestrian bicycle" speed="13.89" length="0.10" shape="2098.40,2100.00 2098.40,2100.00"/>
    </edge>
    <edge id=":16_2" function="internal">
        <lane id=":16_2_0" index="0" allow="bicycle" speed="13.89" length="0.10" width="1.00" shape="2103.70,2100.00 2103.70,2100.00"/>
        <lane id=":16_2_1" index="1" disallow="pedestrian bicycle" speed="13.89" length="0.10" shape="2101.60,2100.00 2101.60,2100.00"/>
    </edge>
    <edge id=":17_0" function="internal">
        <lane id=":17_0_0" index="0" allow="bicycle" speed="5.34" length="6.45" width="1.00" shape="3093.10,1110.90 3092.85,1109.15 3092.10,1107.90 3090.85,1107.15 3089.10,1106.90"/>
    </edge>
    <edge id=":17_1" function="internal">
        <lane id=":17_1_0" index="0" allow="bicycle" speed="13.89" length="21.80" width="1.00" shape="3093.10,1110.90 3093.10,1089.10"/>
    </edge>
    <edge id=":17_2" function="internal">
        <lane id=":17_2_0" index="0" allow="bicycle" speed="10.75" length="15.01" width="1.00" shape="3093.10,1110.90 3094.70,1104.58 3098.85,1098.85 3100.00,1098.02"/>
    </edge>
    <edge id=":17_3" function="internal">
        <lane id=":17_3_0" index="0" disallow="pedestrian bicycle" speed="13.89" length="21.80" shape="3095.20,1110.90 3095.20,1089.10"/>
    </edge>
    <edge id=":17_4" function="internal">
        <lane id=":17_4_0" index="0" disallow="pedestrian bicycle" speed="8.21" length="4.23" shape="3098.40,1110.90 3097.82,1106.83 3097.76,1106.73"/>
    </edge>
    <edge id=":17_5" function="internal">
        <lane id=":17_5_0" index="0" disallow="pedestrian bicycle" speed="13.89" length="21.80" shape="3098.40,1110.90 3098.40,1089.10"/>
    </edge>
    <edge id=":17_6" function="internal">
        <lane id=":17_6_0" index="0" disallow="pedestrian bicycle" speed="9.20" length="5.01" shape="3098.40,1110.90 3099.52,1106.46 3099.78,1106.11"/>
    </edge>
    <edge id=":17_28" function="internal">
        <lane id=":17_28_0" index="0" allow="bicycle" speed="10.75" length="12.18" width="1.00" shape="3100.00,1098.02 3104.58,1094.70 3110.90,1093.10"/>
    </edge>
    <edge id=":17_29" function="internal">
        <lane id=":17_29_0" index="0" disallow="pedestrian bicycle" speed="8.21" length="10.77" shape="3097.76,1106.73 3096.08,1103.92 3093.17,1102.18 3089.10,1101.60"/>
    </edge>
    <edge id=":17_30" function="internal">
        <lane id=":17_30_0" index="0" disallow="pedestrian bicycle" speed="9.20" length="14.08" shape="3099.78,1106.11 3102.44,1102.44 3106.46,1099.52 3110.90,1098.40"/>
    </edge>
    <edge id=":17_7" function="internal">
        <lane id=":17_7_0" index="0" allow="bicycle" speed="5.34" length="6.45" width="1.00" shape="3110.90,1106.90 3109.15,1107.15 3107.90,1107.90 3107.15,1109.15 3106.90,1110.90"/>
    </edge>
    <edge id=":17_8" function="internal">
        <lane id=":17_8_0" index="0" allow="bicycle" speed="13.89" length="21.80" width="1.00" shape="3110.90,1106.90 3089.10,1106.90"/>
    </edge>
    <edge id=":17_9" function="internal">
        <lane id=":17_9_0" index="0" allow="bicycle" speed="10.75" length="15.01" width="1.00" shape="3110.90,1106.90 3104.58,1105.30 3098.85,1101.15 3098.02,1100.00"/>
    </edge>
    <edge id=":17_10" function="internal">
        <lane id=":17_10_0" index="0" disallow="pedestrian bicycle" speed="13.89" length="21.80" shape="3110.90,1104.80 3089.10,1104.80"/>
    </edge>
    <edge id=":17_11" function="internal">
        <lane id=":17_11_0" index="0" disallow="pedestrian bicycle" speed="8.21" length="4.23" shape="3110.90,1101.60 3106.83,1102.18 3106.73,1102.24"/>
    </edge>
    <edge id=":17_12" function="internal">
        <lane id=":17_12_0" index="0" disallow="pedestrian bicycle" speed="13.89" length="21.80" shape="3110.90,1101.60 3089.10,1101.60"/>
    </edge>
    <edge id=":17_13" function="internal">
        <lane id=":17_13_0" index="0" disallow="pedestrian bicycle" speed="9.20" length="5.01" shape="3110.90,1101.60 3106.46,1100.48 3106.11,1100.22"/>
    </edge>
    <edge id=":17_31" function="internal">
        <lane id=":17_31_0" index="0" allow="bicycle" speed="10.75" length="12.18" width="1.00" shape="3098.02,1100.00 3094.70,1095.42 3093.10,1089.10"/>
    </edge>
    <edge id=":17_32" function="internal">
        <lane id=":17_32_0" index="0" disallow="pedestrian bicycle" speed="8.21" length="10.77" shape="3106.73,1102.24 3103.93,1103.92 3102.18,1106.83 3101.60,1110.90"/>
    </edge>
    <edge id=":17_33" function="internal">
        <lane id=":17_33_0" index="0" disallow="pedestrian bicycle" speed="9.20" length="14.08" shape="3106.11,1100.22 3102.44,1097.56 3099.52,1093.54 3098.40,1089.10"/>
    </edge>
    <edge id=":17_14" function="internal">
        <lane id=":17_14_0" index="0" allow="bicycle" speed="5.34" length="6.45" width="1.00" shape="3106.90,1089.10 3107.15,1090.85 3107.90,1092.10 3109.15,1092.85 3110.90,1093.10"/>
    </edge>
    <edge id=":17_15" function="internal">
        <lane id=":17_15_0" index="0" allow="bicycle" speed="13.89" length="21.80" width="1.00" shape="3106.90,1089.10 3106.90,1110.90"/>
    </edge>
    <edge id=":17_16" function="internal">
        <lane id=":17_16_0" index="0" allow="bicycle" speed="10.75" length="15.01" width="1.00" shape="3106.90,1089.10 3105.30,1095.42 3101.15,1101.15 3100.00,1101.98"/>
    </edge>
    <edge id=":17_17" function="internal">
        <lane id=":17_17_0" index="0" disallow="pedestrian bicycle" speed="13.89" length="21.80" shape="3104.80,1089.10 3104.80,1110.90"/>
    </edge>
    <edge id=":17_18" function="internal">
        <lane id=":17_18_0" index="0" disallow="pedestrian bicycle" speed="8.21" length="4.23" shape="3101.60,1089.10 3102.18,1093.17 3102.24,1093.27"/>
    </edge>
    <edge id=":17_19" function="internal">
        <lane id=":17_19_0" index="0" disallow="pedestrian bicycle" speed="13.89" length="21.80" shape="3101.60,1089.10 3101.60,1110.90"/>
    </edge>
    <edge id=":17_20" function="internal">
        <lane id=":17_20_0" index="0" disallow="pedestrian bicycle" speed="9.20" length="5.01" shape="3101.60,1089.10 3100.48,1093.54 3100.22,1093.89"/>
    </edge>
    <edge id=":17_34" function="internal">
        <lane id=":17_34_0" index="0" allow="bicycle" speed="10.75" length="12.18" width="1.00" shape="3100.00,1101.98 3095.42,1105.30 3089.10,1106.90"/>
    </edge>
    <edge id=":17_35" function="internal">
        <lane id=":17_35_0" index="0" disallow="pedestrian bicycle" speed="8.21" length="10.77" shape="3102.24,1093.27 3103.92,1096.08 3106.83,1097.82 3110.90,1098.40"/>
    </edge>
    <edge id=":17_36" function="internal">
        <lane id=":17_36_0" index="0" disallow="pedestrian bicycle" speed="9.20" length="14.08" shape="3100.22,1093.89 3097.56,1097.56 3093.54,1100.48 3089.10,1101.60"/>
    </edge>
    <edge id=":17_21" function="internal">
        <lane id=":17_21_0" index="0" allow="bicycle" speed="5.34" length="6.45" width="1.00" shape="3089.10,1093.10 3090.85,1092.85 3092.10,1092.10 3092.85,1090.85 3093.10,1089.10"/>
    </edge>
    <edge id=":17_22" function="internal">
        <lane id=":17_22_0" index="0" allow="bicycle" speed="13.89" length="21.80" width="1.00" shape="3089.10,1093.10 3110.90,1093.10"/>
    </edge>
    <edge id=":17_23" function="internal">
        <lane id=":17_23_0" index="0" allow="bicycle" speed="10.75" length="15.01" width="1.00" shape="3089.10,1093.10 3095.42,1094.70 3101.15,1098.85 3101.98,1100.00"/>
    </edge>
    <edge id=":17_24" function="internal">
        <lane id=":17_24_0" index="0" disallow="pedestrian bicycle" speed="13.89" length="21.80" shape="3089.10,1095.20 3110.90,1095.20"/>
    </edge>
    <edge id=":17_25" function="internal">
        <lane id=":17_25_0" index="0" disallow="pedestrian bicycle" speed="8.21" length="4.23" shape="3089.10,1098.40 3093.17,1097.82 3093.27,1097.76"/>
    </edge>
    <edge id=":17_26" function="internal">
        <lane id=":17_26_0" index="0" disallow="pedestrian bicycle" speed="13.89" length="21.80" shape="3089.10,1098.40 3110.90,1098.40"/>
    </edge>
    <edge id=":17_27" function="internal">
        <lane id=":17_27_0" index="0" disallow="pedestrian bicycle" speed="9.20" length="5.01" shape="3089.10,1098.40 3093.54,1099.52 3093.89,1099.78"/>
    </edge>
    <edge id=":17_37" function="internal">
        <lane id=":17_37_0" index="0" allow="bicycle" speed="10.75" length="12.18" width="1.00" shape="3101.98,1100.00 3105.30,1104.58 3106.90,1110.90"/>
    </edge>
    <edge id=":17_38" function="internal">
        <lane id=":17_38_0" index="0" disallow="pedestrian bicycle" speed="8.21" length="10.77" shape="3093.27,1097.76 3096.07,1096.08 3097.82,1093.17 3098.40,1089.10"/>
    </edge>
    <edge id=":17_39" function="internal">
        <lane id=":17_39_0" index="0" disallow="pedestrian bicycle" speed="9.20" length="14.08" shape="3093.89,1099.78 3097.56,1102.44 3100.48,1106.46 3101.60,1110.90"/>
    </edge>
    <edge id=":18_0" function="internal">
        <lane id=":18_0_0" index="0" allow="bicycle" speed="5.34" length="6.45" width="1.00" shape="4093.10,1110.90 4092.85,1109.15 4092.10,1107.90 4090.85,1107.15 4089.10,1106.90"/>
    </edge>
    <edge id=":18_1" function="internal">
        <lane id=":18_1_0" index="0" allow="bicycle" speed="13.89" length="21.80" width="1.00" shape="4093.10,1110.90 4093.10,1089.10"/>
    </edge>
    <edge id=":18_2" function="internal">
        <lane id=":18_2_0" index="0" allow="bicycle" speed="10.75" length="15.01" width="1.00" shape="4093.10,1110.90 4094.70,1104.58 4098.85,1098.85 4100.00,1098.02"/>
    </edge>
    <edge id=":18_3" function="internal">
        <lane id=":18_3_0" index="0" disallow="pedestrian bicycle" speed="13.89" length="21.80" shape="4095.20,1110.90 4095.20,1089.10"/>
    </edge>
    <edge id=":18_4" function="internal">
        <lane id=":18_4_0" index="0" disallow="pedestrian bicycle" speed="8.21" length="4.23" shape="4098.40,1110.90 4097.82,1106.83 4097.76,1106.73"/>
    </edge>
    <edge id=":18_5" function="internal">
        <lane id=":18_5_0" index="0" disallow="pedestrian bicycle" speed="13.89" length="21.80" shape="4098.40,1110.90 4098.40,1089.10"/>
    </edge>
    <edge id=":18_6" function="internal">
        <lane id=":18_6_0" index="0" disallow="pedestrian bicycle" speed="9.20" length="5.01" shape="4098.40,1110.90 4099.52,1106.46 4099.78,1106.11"/>
    </edge>
    <edge id=":18_28" function="internal">
        <lane id=":18_28_0" index="0" allow="bicycle" speed="10.75" length="12.18" width="1.00" shape="4100.00,1098.02 4104.58,1094.70 4110.90,1093.10"/>
    </edge>
    <edge id=":18_29" function="internal">
        <lane id=":18_29_0" index="0" disallow="pedestrian bicycle" speed="8.21" length="10.77" shape="4097.76,1106.73 4096.07,1103.92 4093.17,1102.18 4089.10,1101.60"/>
    </edge>
    <edge id=":18_30" function="internal">
        <lane id=":18_30_0" index="0" disallow="pedestrian bicycle" speed="9.20" length="14.08" shape="4099.78,1106.11 4102.44,1102.44 4106.46,1099.52 4110.90,1098.40"/>
    </edge>
    <edge id=":18_7" function="internal">
        <lane id=":18_7_0" index="0" allow="bicycle" speed="5.34" length="6.45" width="1.00" shape="4110.90,1106.90 4109.15,1107.15 4107.90,1107.90 4107.15,1109.15 4106.90,1110.90"/>
    </edge>
    <edge id=":18_8" function="internal">
        <lane id=":18_8_0" index="0" allow="bicycle" speed="13.89" length="21.80" width="1.00" shape="4110.90,1106.90 4089.10,1106.90"/>
    </edge>
    <edge id=":18_9" function="internal">
        <lane id=":18_9_0" index="0" allow="bicycle" speed="10.75" length="15.01" width="1.00" shape="4110.90,1106.90 4104.58,1105.30 4098.85,1101.15 4098.02,1100.00"/>
    </edge>
    <edge id=":18_10" function="internal">
        <lane id=":18_10_0" index="0" disallow="pedestrian bicycle" speed="13.89" length="21.80" shape="4110.90,1104.80 4089.10,1104.80"/>
    </edge>
    <edge id=":18_11" function="internal">
        <lane id=":18_11_0" index="0" disallow="pedestrian bicycle" speed="8.21" length="4.23" shape="4110.90,1101.60 4106.83,1102.18 4106.73,1102.24"/>
    </edge>
    <edge id=":18_12" function="internal">
        <lane id=":18_12_0" index="0" disallow="pedestrian bicycle" speed="13.89" length="21.80" shape="4110.90,1101.60 4089.10,1101.60"/>
    </edge>
    <edge id=":18_13" function="internal">
        <lane id=":18_13_0" index="0" disallow="pedestrian bicycle" speed="9.20" length="5.01" shape="4110.90,1101.60 4106.46,1100.48 4106.11,1100.22"/>
    </edge>
    <edge id=":18_31" function="internal">
        <lane id=":18_31_0" index="0" allow="bicycle" speed="10.75" length="12.18" width="1.00" shape="4098.02,1100.00 4094.70,1095.42 4093.10,1089.10"/>
    </edge>
    <edge id=":18_32" function="internal">
        <lane id=":18_32_0" index="0" disallow="pedestrian bicycle" speed="8.21" length="10.77" shape="4106.73,1102.24 4103.93,1103.92 4102.18,1106.83 4101.60,1110.90"/>
    </edge>
    <edge id=":18_33" function="internal">
        <lane id=":18_33_0" index="0" disallow="pedestrian bicycle" speed="9.20" length="14.08" shape="4106.11,1100.22 4102.44,1097.56 4099.52,1093.54 4098.40,1089.10"/>
    </edge>
    <edge id=":18_14" function="internal">
        <lane id=":18_14_0" index="0" allow="bicycle" speed="5.34" length="6.45" width="1.00" shape="4106.90,1089.10 4107.15,1090.85 4107.90,1092.10 4109.15,1092.85 4110.90,1093.10"/>
    </edge>
    <edge id=":18_15" function="internal">
        <lane id=":18_15_0" index="0" allow="bicycle" speed="13.89" length="21.80" width="1.00" shape="4106.90,1089.10 4106.90,1110.90"/>
    </edge>
    <edge id=":18_16" function="internal">
        <lane id=":18_16_0" index="0" allow="bicycle" speed="10.75" length="15.01" width="1.00" shape="4106.90,1089.10 4105.30,1095.42 4101.15,1101.15 4100.00,1101.98"/>
    </edge>
    <edge id=":18_17" function="internal">
        <lane id=":18_17_0" index="0" disallow="pedestrian bicycle" speed="13.89" length="21.80" shape="4104.80,1089.10 4104.80,1110.90"/>
    </edge>
    <edge id=":18_18" function="internal">
        <lane id=":18_18_0" index="0" disallow="pedestrian bicycle" speed="8.21" length="4.23" shape="4101.60,1089.10 4102.18,1093.17 4102.24,1093.27"/>
    </edge>
    <edge id=":18_19" function="internal">
        <lane id=":18_19_0" index="0" disallow="pedestrian bicycle" speed="13.89" length="21.80" shape="4101.60,1089.10 4101.60,1110.90"/>
    </edge>
    <edge id=":18_20" function="internal">
        <lane id=":18_20_0" index="0" disallow="pedestrian bicycle" speed="9.20" length="5.01" shape="4101.60,1089.10 4100.48,1093.54 4100.22,1093.89"/>
    </edge>
    <edge id=":18_34" function="internal">
        <lane id=":18_34_0" index="0" allow="bicycle" speed="10.75" length="12.18" width="1.00" shape="4100.00,1101.98 4095.42,1105.30 4089.10,1106.90"/>
    </edge>
    <edge id=":18_35" function="internal">
        <lane id=":18_35_0" index="0" disallow="pedestrian bicycle" speed="8.21" length="10.77" shape="4102.24,1093.27 4103.93,1096.08 4106.83,1097.82 4110.90,1098.40"/>
    </edge>
    <edge id=":18_36" function="internal">
        <lane id=":18_36_0" index="0" disallow="pedestrian bicycle" speed="9.20" length="14.08" shape="4100.22,1093.89 4097.56,1097.56 4093.54,1100.48 4089.10,1101.60"/>
    </edge>
    <edge id=":18_21" function="internal">
        <lane id=":18_21_0" index="0" allow="bicycle" speed="5.34" length="6.45" width="1.00" shape="4089.10,1093.10 4090.85,1092.85 4092.10,1092.10 4092.85,1090.85 4093.10,1089.10"/>
    </edge>
    <edge id=":18_22" function="internal">
        <lane id=":18_22_0" index="0" allow="bicycle" speed="13.89" length="21.80" width="1.00" shape="4089.10,1093.10 4110.90,1093.10"/>
    </edge>
    <edge id=":18_23" function="internal">
        <lane id=":18_23_0" index="0" allow="bicycle" speed="10.75" length="15.01" width="1.00" shape="4089.10,1093.10 4095.42,1094.70 4101.15,1098.85 4101.98,1100.00"/>
    </edge>
    <edge id=":18_24" function="internal">
        <lane id=":18_24_0" index="0" disallow="pedestrian bicycle" speed="13.89" length="21.80" shape="4089.10,1095.20 4110.90,1095.20"/>
    </edge>
    <edge id=":18_25" function="internal">
        <lane id=":18_25_0" index="0" disallow="pedestrian bicycle" speed="8.21" length="4.23" shape="4089.10,1098.40 4093.17,1097.82 4093.27,1097.76"/>
    </edge>
    <edge id=":18_26" function="internal">
        <lane id=":18_26_0" index="0" disallow="pedestrian bicycle" speed="13.89" length="21.80" shape="4089.10,1098.40 4110.90,1098.40"/>
    </edge>
    <edge id=":18_27" function="internal">
        <lane id=":18_27_0" index="0" disallow="pedestrian bicycle" speed="9.20" length="5.01" shape="4089.10,1098.40 4093.54,1099.52 4093.89,1099.78"/>
    </edge>
    <edge id=":18_37" function="internal">
        <lane id=":18_37_0" index="0" allow="bicycle" speed="10.75" length="12.18" width="1.00" shape="4101.98,1100.00 4105.30,1104.58 4106.90,1110.90"/>
    </edge>
    <edge id=":18_38" function="internal">
        <lane id=":18_38_0" index="0" disallow="pedestrian bicycle" speed="8.21" length="10.77" shape="4093.27,1097.76 4096.07,1096.08 4097.82,1093.17 4098.40,1089.10"/>
    </edge>
    <edge id=":18_39" function="internal">
        <lane id=":18_39_0" index="0" disallow="pedestrian bicycle" speed="9.20" length="14.08" shape="4093.89,1099.78 4097.56,1102.44 4100.48,1106.46 4101.60,1110.90"/>
    </edge>
    <edge id=":19_0" function="internal">
        <lane id=":19_0_0" index="0" allow="bicycle" speed="5.34" length="6.45" width="1.00" shape="5093.10,1110.90 5092.85,1109.15 5092.10,1107.90 5090.85,1107.15 5089.10,1106.90"/>
    </edge>
    <edge id=":19_1" function="internal">
        <lane id=":19_1_0" index="0" allow="bicycle" speed="13.89" length="21.80" width="1.00" shape="5093.10,1110.90 5093.10,1089.10"/>
    </edge>
    <edge id=":19_2" function="internal">
        <lane id=":19_2_0" index="0" allow="bicycle" speed="10.75" length="15.01" width="1.00" shape="5093.10,1110.90 5094.70,1104.58 5098.85,1098.85 5100.00,1098.02"/>
    </edge>
    <edge id=":19_3" function="internal">
        <lane id=":19_3_0" index="0" disallow="pedestrian bicycle" speed="13.89" length="21.80" shape="5095.20,1110.90 5095.20,1089.10"/>
    </edge>
    <edge id=":19_4" function="internal">
        <lane id=":19_4_0" index="0" disallow="pedestrian bicycle" speed="8.21" length="4.23" shape="5098.40,1110.90 5097.82,1106.83 5097.76,1106.73"/>
    </edge>
    <edge id=":19_5" function="internal">
        <lane id=":19_5_0" index="0" disallow="pedestrian bicycle" speed="13.89" length="21.80" shape="5098.40,1110.90 5098.40,1089.10"/>
    </edge>
    <edge id=":19_6" function="internal">
        <lane id=":19_6_0" index="0" disallow="pedestrian bicycle" speed="9.20" length="5.01" shape="5098.40,1110.90 5099.52,1106.46 5099.78,1106.11"/>
    </edge>
    <edge id=":19_28" function="internal">
        <lane id=":19_28_0" index="0" allow="bicycle" speed="10.75" length="12.18" width="1.00" shape="5100.00,1098.02 5104.58,1094.70 5110.90,1093.10"/>
    </edge>
    <edge id=":19_29" function="internal">
        <lane id=":19_29_0" index="0" disallow="pedestrian bicycle" speed="8.21" length="10.77" shape="5097.76,1106.73 5096.07,1103.92 5093.17,1102.18 5089.10,1101.60"/>
    </edge>
    <edge id=":19_30" function="internal">
        <lane id=":19_30_0" index="0" disallow="pedestrian bicycle" speed="9.20" length="14.08" shape="5099.78,1106.11 5102.44,1102.44 5106.46,1099.52 5110.90,1098.40"/>
    </edge>
    <edge id=":19_7" function="internal">
        <lane id=":19_7_0" index="0" allow="bicycle" speed="5.34" length="6.45" width="1.00" shape="5110.90,1106.90 5109.15,1107.15 5107.90,1107.90 5107.15,1109.15 5106.90,1110.90"/>
    </edge>
    <edge id=":19_8" function="internal">
        <lane id=":19_8_0" index="0" allow="bicycle" speed="13.89" length="21.80" width="1.00" shape="5110.90,1106.90 5089.10,1106.90"/>
    </edge>
    <edge id=":19_9" function="internal">
        <lane id=":19_9_0" index="0" allow="bicycle" speed="10.75" length="15.01" width="1.00" shape="5110.90,1106.90 5104.58,1105.30 5098.85,1101.15 5098.02,1100.00"/>
    </edge>
    <edge id=":19_10" function="internal">
        <lane id=":19_10_0" index="0" disallow="pedestrian bicycle" speed="13.89" length="21.80" shape="5110.90,1104.80 5089.10,1104.80"/>
    </edge>
    <edge id=":19_11" function="internal">
        <lane id=":19_11_0" index="0" disallow="pedestrian bicycle" speed="8.21" length="4.23" shape="5110.90,1101.60 5106.83,1102.18 5106.73,1102.24"/>
    </edge>
    <edge id=":19_12" function="internal">
        <lane id=":19_12_0" index="0" disallow="pedestrian bicycle" speed="13.89" length="21.80" shape="5110.90,1101.60 5089.10,1101.60"/>
    </edge>
    <edge id=":19_13" function="internal">
        <lane id=":19_13_0" index="0" disallow="pedestrian bicycle" speed="9.20" length="5.01" shape="5110.90,1101.60 5106.46,1100.48 5106.11,1100.22"/>
    </edge>
    <edge id=":19_31" function="internal">
        <lane id=":19_31_0" index="0" allow="bicycle" speed="10.75" length="12.18" width="1.00" shape="5098.02,1100.00 5094.70,1095.42 5093.10,1089.10"/>
    </edge>
    <edge id=":19_32" function="internal">
        <lane id=":19_32_0" index="0" disallow="pedestrian bicycle" speed="8.21" length="10.77" shape="5106.73,1102.24 5103.93,1103.92 5102.18,1106.83 5101.60,1110.90"/>
    </edge>
    <edge id=":19_33" function="internal">
        <lane id=":19_33_0" index="0" disallow="pedestrian bicycle" speed="9.20" length="14.08" shape="5106.11,1100.22 5102.44,1097.56 5099.52,1093.54 5098.40,1089.10"/>
    </edge>
    <edge id=":19_14" function="internal">
        <lane id=":19_14_0" index="0" allow="bicycle" speed="5.34" length="6.45" width="1.00" shape="5106.90,1089.10 5107.15,1090.85 5107.90,1092.10 5109.15,1092.85 5110.90,1093.10"/>
    </edge>
    <edge id=":19_15" function="internal">
        <lane id=":19_15_0" index="0" allow="bicycle" speed="13.89" length="21.80" width="1.00" shape="5106.90,1089.10 5106.90,1110.90"/>
    </edge>
    <edge id=":19_16" function="internal">
        <lane id=":19_16_0" index="0" allow="bicycle" speed="10.75" length="15.01" width="1.00" shape="5106.90,1089.10 5105.30,1095.42 5101.15,1101.15 5100.00,1101.98"/>
    </edge>
    <edge id=":19_17" function="internal">
        <lane id=":19_17_0" index="0" disallow="pedestrian bicycle" speed="13.89" length="21.80" shape="5104.80,1089.10 5104.80,1110.90"/>
    </edge>
    <edge id=":19_18" function="internal">