<nodes>

<!--  Horizontal Arterial - 5 Intersections @ 1km spacing -->

<!-- 


                    c              e              g              i              k
                    │              │              │              │              │
                    9             13             26             30             34
                    │              │              │              │              │
                   10             14             27             31             35
                    │              │              │              │              │
   a────1────2────[3]────4────5──[6]────7───20─[17]───21───22─[18]───23───24─[19]───25────8────b
                    │              │              │              │              │
                   11             15             28             32             36
                    │              │              │              │              │
                   12             16             29             33             37
                    │              │              │              │              │
                    d              f              h              j              l


   x=-1100        x=0          x=1000         x=2000         x=3000         x=4000        x=5100
   (Entry)      TLS-1          TLS-2          TLS-3          TLS-4          TLS-5         (Exit)

-->

<!-- Entry/Exit Points -->
<node id="a" x="-1100"  y="0"/>
<node id="b" x="5100"   y="0"/>


<node id="1" x="-1000"  y="0" />
<node id="2" x="-105"   y="0"/>

<!-- TLS-1 (node 3) @ x=0 -->
<node id="3" x="0"      y="0" type="traffic_light"/>

<!-- Between TLS-1 and TLS-2 -->
<node id="4" x="105"    y="0"/>
<node id="5" x="895"    y="0"/>

<!-- TLS-2 (node 6) @ x=1000 -->
<node id="6" x="1000"   y="0" type="traffic_light"/>

<!-- Between TLS-2 and TLS-3 -->
<node id="7" x="1105"   y="0"/>
<node id="20" x="1895"  y="0"/>

<!-- TLS-3 (node 17) @ x=2000 -->
<node id="17" x="2000"  y="0" type="traffic_light"/>

<!-- Between TLS-3 and TLS-4 -->
<node id="21" x="2105"  y="0"/>
<node id="22" x="2895"  y="0"/>

<!-- TLS-4 (node 18) @ x=3000 -->
<node id="18" x="3000"  y="0" type="traffic_light"/>

<!-- Between TLS-4 and TLS-5 -->
<node id="23" x="3105"  y="0"/>
<node id="24" x="3895"  y="0"/>

<!-- TLS-5 (node 19) @ x=4000 -->
<node id="19" x="4000"  y="0" type="traffic_light"/>


<!-- Final segment -->
<node id="25" x="4105"  y="0"/>
<node id="8" x="5000"   y="0" />


<!-- Vertical Cross-Street @ TLS-1 (x=0) -->

<node id="c" x="0"      y="-1100"/>
<node id="9" x="0"      y="-1000"/>
<node id="10" x="0"     y="-105"/>


<node id="11" x="0"     y="105"/>
<node id="12" x="0"     y="1000"/>
<node id="d" x="0"      y="1100"/>


<!-- Vertical Cross-Street @ TLS-2 (x=1000) -->

<node id="e" x="1000"   y="-1100"/>
<node id="13" x="1000"  y="-1000"/>
<node id="14" x="1000"  y="-105"/>

<node id="15" x="1000"  y="105"/>
<node id="16" x="1000"  y="1000"/>
<node id="f" x="1000"   y="1100"/>


<!-- Vertical Cross-Street @ TLS-3 (x=2000) -->

<node id="g" x="2000"   y="-1100"/>
<node id="26" x="2000"  y="-1000"/>
<node id="27" x="2000"  y="-105"/>

<node id="28" x="2000"  y="105"/>
<node id="29" x="2000"  y="1000"/>
<node id="h" x="2000"   y="1100"/>


<!-- Vertical Cross-Street @ TLS-4 (x=3000) -->

<node id="i" x="3000"   y="-1100"/>
<node id="30" x="3000"  y="-1000"/>
<node id="31" x="3000"  y="-105"/>

<node id="32" x="3000"  y="105"/>
<node id="33" x="3000"  y="1000"/>
<node id="j" x="3000"   y="1100"/>


<!-- Vertical Cross-Street @ TLS-5 (x=4000) -->

<node id="k" x="4000"   y="-1100"/>
<node id="34" x="4000"  y="-1000"/>
<node id="35" x="4000"  y="-105"/>

<node id="36" x="4000"  y="105"/>
<node id="37" x="4000"  y="1000"/>
<node id="l" x="4000"   y="1100"/>


</nodes>