<?xml version="1.0" encoding="UTF-8"?>

<!-- generated on 2025-11-22 21:20:47 by Eclipse SUMO netconvert Version 1.24.0
<netconvertConfiguration xmlns:xsi="http://www.w3.org/2001/XMLSchema-instance" xsi:noNamespaceSchemaLocation="http://sumo.dlr.de/xsd/netconvertConfiguration.xsd">

    <input>
        <node-files value="common.nod.xml"/>
        <edge-files value="common.edg.xml"/>
        <connection-files value="common.con.xml"/>
    </input>

    <output>
        <output-file value="common.net.xml"/>
    </output>

</netconvertConfiguration>
-->

<net version="1.20" junctionCornerDetail="5" limitTurnSpeed="5.50" xmlns:xsi="http://www.w3.org/2001/XMLSchema-instance" xsi:noNamespaceSchemaLocation="http://sumo.dlr.de/xsd/net_file.xsd">

    <location netOffset="1100.00,1100.00" convBoundary="0.00,0.00,6200.00,2200.00" origBoundary="-1100.00,-1100.00,5100.00,1100.00" projParameter="!"/>

    <edge id=":1_0" function="internal">
        <lane id=":1_0_0" index="0" speed="13.89" length="0.10" shape="100.00,1108.00 100.00,1108.00"/>
        <lane id=":1_0_1" index="1" speed="13.89" length="0.10" shape="100.00,1104.80 100.00,1104.80"/>
        <lane id=":1_0_2" index="2" speed="13.89" length="0.10" shape="100.00,1101.60 100.00,1101.60"/>
    </edge>
    <edge id=":1_3" function="internal">
        <lane id=":1_3_0" index="0" speed="13.89" length="0.10" shape="100.00,1092.00 100.00,1092.00"/>
        <lane id=":1_3_1" index="1" speed="13.89" length="0.10" shape="100.00,1095.20 100.00,1095.20"/>
        <lane id=":1_3_2" index="2" speed="13.89" length="0.10" shape="100.00,1098.40 100.00,1098.40"/>
    </edge>
    <edge id=":10_0" function="internal">
        <lane id=":10_0_0" index="0" speed="13.89" length="8.60" shape="1088.80,999.00 1089.30,996.54 1090.40,995.00 1091.50,993.46 1092.00,991.00"/>
        <lane id=":10_0_1" index="1" speed="13.89" length="8.60" shape="1092.00,999.00 1092.50,996.54 1093.60,995.00 1094.70,993.46 1095.20,991.00"/>
        <lane id=":10_0_2" index="2" speed="13.89" length="8.60" shape="1095.20,999.00 1095.70,996.54 1096.80,995.00 1097.90,993.46 1098.40,991.00"/>
        <lane id=":10_0_3" index="3" speed="13.89" length="8.60" shape="1098.40,999.00 1098.40,991.00"/>
    </edge>
    <edge id=":10_4" function="internal">
        <lane id=":10_4_0" index="0" speed="13.89" length="8.60" shape="1108.00,991.00 1108.50,993.46 1109.60,995.00 1110.70,996.54 1111.20,999.00"/>
        <lane id=":10_4_1" index="1" speed="13.89" length="8.60" shape="1104.80,991.00 1105.30,993.46 1106.40,995.00 1107.50,996.54 1108.00,999.00"/>
        <lane id=":10_4_2" index="2" speed="13.89" length="8.60" shape="1101.60,991.00 1102.10,993.46 1103.20,995.00 1104.30,996.54 1104.80,999.00"/>
        <lane id=":10_4_3" index="3" speed="13.89" length="8.60" shape="1101.60,991.00 1101.60,999.00"/>
    </edge>
    <edge id=":11_0" function="internal">
        <lane id=":11_0_0" index="0" speed="13.89" length="8.60" shape="1092.00,1209.00 1091.50,1206.54 1090.40,1205.00 1089.30,1203.46 1088.80,1201.00"/>
        <lane id=":11_0_1" index="1" speed="13.89" length="8.60" shape="1095.20,1209.00 1094.70,1206.54 1093.60,1205.00 1092.50,1203.46 1092.00,1201.00"/>
        <lane id=":11_0_2" index="2" speed="13.89" length="8.60" shape="1098.40,1209.00 1097.90,1206.54 1096.80,1205.00 1095.70,1203.46 1095.20,1201.00"/>
        <lane id=":11_0_3" index="3" speed="13.89" length="8.60" shape="1098.40,1209.00 1098.40,1201.00"/>
    </edge>
    <edge id=":11_4" function="internal">
        <lane id=":11_4_0" index="0" speed="13.89" length="8.60" shape="1111.20,1201.00 1110.70,1203.46 1109.60,1205.00 1108.50,1206.54 1108.00,1209.00"/>
        <lane id=":11_4_1" index="1" speed="13.89" length="8.60" shape="1108.00,1201.00 1107.50,1203.46 1106.40,1205.00 1105.30,1206.54 1104.80,1209.00"/>
        <lane id=":11_4_2" index="2" speed="13.89" length="8.60" shape="1104.80,1201.00 1104.30,1203.46 1103.20,1205.00 1102.10,1206.54 1101.60,1209.00"/>
        <lane id=":11_4_3" index="3" speed="13.89" length="8.60" shape="1101.60,1201.00 1101.60,1209.00"/>
    </edge>
    <edge id=":12_0" function="internal">
        <lane id=":12_0_0" index="0" speed="13.89" length="0.10" shape="1092.00,2100.00 1092.00,2100.00"/>
        <lane id=":12_0_1" index="1" speed="13.89" length="0.10" shape="1095.20,2100.00 1095.20,2100.00"/>
        <lane id=":12_0_2" index="2" speed="13.89" length="0.10" shape="1098.40,2100.00 1098.40,2100.00"/>
    </edge>
    <edge id=":12_3" function="internal">
        <lane id=":12_3_0" index="0" speed="13.89" length="0.10" shape="1108.00,2100.00 1108.00,2100.00"/>
        <lane id=":12_3_1" index="1" speed="13.89" length="0.10" shape="1104.80,2100.00 1104.80,2100.00"/>
        <lane id=":12_3_2" index="2" speed="13.89" length="0.10" shape="1101.60,2100.00 1101.60,2100.00"/>
    </edge>
    <edge id=":13_0" function="internal">
        <lane id=":13_0_0" index="0" speed="13.89" length="0.10" shape="2092.00,100.00 2092.00,100.00"/>
        <lane id=":13_0_1" index="1" speed="13.89" length="0.10" shape="2095.20,100.00 2095.20,100.00"/>
        <lane id=":13_0_2" index="2" speed="13.89" length="0.10" shape="2098.40,100.00 2098.40,100.00"/>
    </edge>
    <edge id=":13_3" function="internal">
        <lane id=":13_3_0" index="0" speed="13.89" length="0.10" shape="2108.00,100.00 2108.00,100.00"/>
        <lane id=":13_3_1" index="1" speed="13.89" length="0.10" shape="2104.80,100.00 2104.80,100.00"/>
        <lane id=":13_3_2" index="2" speed="13.89" length="0.10" shape="2101.60,100.00 2101.60,100.00"/>
    </edge>
    <edge id=":14_0" function="internal">
        <lane id=":14_0_0" index="0" speed="13.89" length="8.60" shape="2088.80,999.00 2089.30,996.54 2090.40,995.00 2091.50,993.46 2092.00,991.00"/>
        <lane id=":14_0_1" index="1" speed="13.89" length="8.60" shape="2092.00,999.00 2092.50,996.54 2093.60,995.00 2094.70,993.46 2095.20,991.00"/>
        <lane id=":14_0_2" index="2" speed="13.89" length="8.60" shape="2095.20,999.00 2095.70,996.54 2096.80,995.00 2097.90,993.46 2098.40,991.00"/>
        <lane id=":14_0_3" index="3" speed="13.89" length="8.60" shape="2098.40,999.00 2098.40,991.00"/>
    </edge>
    <edge id=":14_4" function="internal">
        <lane id=":14_4_0" index="0" speed="13.89" length="8.60" shape="2108.00,991.00 2108.50,993.46 2109.60,995.00 2110.70,996.54 2111.20,999.00"/>
        <lane id=":14_4_1" index="1" speed="13.89" length="8.60" shape="2104.80,991.00 2105.30,993.46 2106.40,995.00 2107.50,996.54 2108.00,999.00"/>
        <lane id=":14_4_2" index="2" speed="13.89" length="8.60" shape="2101.60,991.00 2102.10,993.46 2103.20,995.00 2104.30,996.54 2104.80,999.00"/>
        <lane id=":14_4_3" index="3" speed="13.89" length="8.60" shape="2101.60,991.00 2101.60,999.00"/>
    </edge>
    <edge id=":15_0" function="internal">
        <lane id=":15_0_0" index="0" speed="13.89" length="8.60" shape="2092.00,1209.00 2091.50,1206.54 2090.40,1205.00 2089.30,1203.46 2088.80,1201.00"/>
        <lane id=":15_0_1" index="1" speed="13.89" length="8.60" shape="2095.20,1209.00 2094.70,1206.54 2093.60,1205.00 2092.50,1203.46 2092.00,1201.00"/>
        <lane id=":15_0_2" index="2" speed="13.89" length="8.60" shape="2098.40,1209.00 2097.90,1206.54 2096.80,1205.00 2095.70,1203.46 2095.20,1201.00"/>
        <lane id=":15_0_3" index="3" speed="13.89" length="8.60" shape="2098.40,1209.00 2098.40,1201.00"/>
    </edge>
    <edge id=":15_4" function="internal">
        <lane id=":15_4_0" index="0" speed="13.89" length="8.60" shape="2111.20,1201.00 2110.70,1203.46 2109.60,1205.00 2108.50,1206.54 2108.00,1209.00"/>
        <lane id=":15_4_1" index="1" speed="13.89" length="8.60" shape="2108.00,1201.00 2107.50,1203.46 2106.40,1205.00 2105.30,1206.54 2104.80,1209.00"/>
        <lane id=":15_4_2" index="2" speed="13.89" length="8.60" shape="2104.80,1201.00 2104.30,1203.46 2103.20,1205.00 2102.10,1206.54 2101.60,1209.00"/>
        <lane id=":15_4_3" index="3" speed="13.89" length="8.60" shape="2101.60,1201.00 2101.60,1209.00"/>
    </edge>
    <edge id=":16_0" function="internal">
        <lane id=":16_0_0" index="0" speed="13.89" length="0.10" shape="2092.00,2100.00 2092.00,2100.00"/>
        <lane id=":16_0_1" index="1" speed="13.89" length="0.10" shape="2095.20,2100.00 2095.20,2100.00"/>
        <lane id=":16_0_2" index="2" speed="13.89" length="0.10" shape="2098.40,2100.00 2098.40,2100.00"/>
    </edge>
    <edge id=":16_3" function="internal">
        <lane id=":16_3_0" index="0" speed="13.89" length="0.10" shape="2108.00,2100.00 2108.00,2100.00"/>
        <lane id=":16_3_1" index="1" speed="13.89" length="0.10" shape="2104.80,2100.00 2104.80,2100.00"/>
        <lane id=":16_3_2" index="2" speed="13.89" length="0.10" shape="2101.60,2100.00 2101.60,2100.00"/>
    </edge>
    <edge id=":17_0" function="internal">
        <lane id=":17_0_0" index="0" speed="13.89" length="33.60" shape="3088.80,1116.80 3088.80,1083.20"/>
    </edge>
    <edge id=":17_1" function="internal">
        <lane id=":17_1_0" index="0" speed="8.00" length="4.07" shape="3092.00,1116.80 3091.45,1112.95 3091.36,1112.80"/>
    </edge>
    <edge id=":17_2" function="internal">
        <lane id=":17_2_0" index="0" speed="13.89" length="33.60" shape="3092.00,1116.80 3092.00,1083.20"/>
    </edge>
    <edge id=":17_3" function="internal">
        <lane id=":17_3_0" index="0" speed="12.62" length="17.19" shape="3092.00,1116.80 3094.62,1109.17 3100.30,1102.03"/>
    </edge>
    <edge id=":17_4" function="internal">
        <lane id=":17_4_0" index="0" speed="9.84" length="6.30" shape="3095.20,1116.80 3094.49,1110.54"/>
    </edge>
    <edge id=":17_5" function="internal">
        <lane id=":17_5_0" index="0" speed="13.89" length="33.70" shape="3095.20,1116.80 3095.20,1083.20"/>
        <lane id=":17_5_1" index="1" speed="13.89" length="33.70" shape="3095.20,1116.80 3095.70,1106.80 3096.80,1100.00 3097.90,1093.20 3098.40,1083.20"/>
    </edge>
    <edge id=":17_7" function="internal">
        <lane id=":17_7_0" index="0" speed="11.07" length="3.63" shape="3098.40,1116.80 3099.29,1113.29"/>
    </edge>
    <edge id=":17_32" function="internal">
        <lane id=":17_32_0" index="0" speed="8.00" length="10.13" shape="3091.36,1112.80 3089.80,1110.20 3087.05,1108.55 3083.20,1108.00"/>
    </edge>
    <edge id=":17_33" function="internal">
        <lane id=":17_33_0" index="0" speed="12.62" length="19.65" shape="3100.30,1102.03 3101.07,1101.07 3109.17,1094.62 3116.80,1092.00"/>
    </edge>
    <edge id=":17_34" function="internal">
        <lane id=":17_34_0" index="0" speed="9.84" length="15.70" shape="3094.49,1110.54 3094.45,1110.15 3092.20,1105.40 3088.45,1102.55 3083.20,1101.60"/>
    </edge>
    <edge id=":17_35" function="internal">
        <lane id=":17_35_0" index="0" speed="11.07" length="24.48" shape="3099.29,1113.29 3100.06,1110.27 3104.35,1104.35 3110.27,1100.06 3116.80,1098.40"/>
    </edge>
    <edge id=":17_8" function="internal">
        <lane id=":17_8_0" index="0" speed="13.89" length="33.60" shape="3116.80,1111.20 3083.20,1111.20"/>
    </edge>
    <edge id=":17_9" function="internal">
        <lane id=":17_9_0" index="0" speed="8.00" length="4.07" shape="3116.80,1108.00 3112.95,1108.55 3112.80,1108.64"/>
    </edge>
    <edge id=":17_10" function="internal">
        <lane id=":17_10_0" index="0" speed="13.89" length="33.60" shape="3116.80,1108.00 3083.20,1108.00"/>
    </edge>
    <edge id=":17_11" function="internal">
        <lane id=":17_11_0" index="0" speed="12.62" length="17.19" shape="3116.80,1108.00 3109.17,1105.38 3102.03,1099.70"/>
    </edge>
    <edge id=":17_12" function="internal">
        <lane id=":17_12_0" index="0" speed="9.84" length="6.30" shape="3116.80,1104.80 3110.54,1105.51"/>
    </edge>
    <edge id=":17_13" function="internal">
        <lane id=":17_13_0" index="0" speed="13.89" length="33.70" shape="3116.80,1104.80 3083.20,1104.80"/>
        <lane id=":17_13_1" index="1" speed="13.89" length="33.70" shape="3116.80,1104.80 3106.80,1104.30 3100.00,1103.20 3093.20,1102.10 3083.20,1101.60"/>
    </edge>
    <edge id=":17_15" function="internal">
        <lane id=":17_15_0" index="0" speed="11.07" length="3.63" shape="3116.80,1101.60 3113.29,1100.71"/>
    </edge>
    <edge id=":17_36" function="internal">
        <lane id=":17_36_0" index="0" speed="8.00" length="10.13" shape="3112.80,1108.64 3110.20,1110.20 3108.55,1112.95 3108.00,1116.80"/>
    </edge>
    <edge id=":17_37" function="internal">
        <lane id=":17_37_0" index="0" speed="12.62" length="19.65" shape="3102.03,1099.70 3101.07,1098.93 3094.62,1090.83 3092.00,1083.20"/>
    </edge>
    <edge id=":17_38" function="internal">
        <lane id=":17_38_0" index="0" speed="9.84" length="15.70" shape="3110.54,1105.51 3110.15,1105.55 3105.40,1107.80 3102.55,1111.55 3101.60,1116.80"/>
    </edge>
    <edge id=":17_39" function="internal">
        <lane id=":17_39_0" index="0" speed="11.07" length="24.48" shape="3113.29,1100.71 3110.27,1099.94 3104.35,1095.65 3100.06,1089.73 3098.40,1083.20"/>
    </edge>
    <edge id=":17_16" function="internal">
        <lane id=":17_16_0" index="0" speed="13.89" length="33.60" shape="3111.20,1083.20 3111.20,1116.80"/>
    </edge>
    <edge id=":17_17" function="internal">
        <lane id=":17_17_0" index="0" speed="8.00" length="4.07" shape="3108.00,1083.20 3108.55,1087.05 3108.64,1087.20"/>
    </edge>
    <edge id=":17_18" function="internal">
        <lane id=":17_18_0" index="0" speed="13.89" length="33.60" shape="3108.00,1083.20 3108.00,1116.80"/>
    </edge>
    <edge id=":17_19" function="internal">
        <lane id=":17_19_0" index="0" speed="12.62" length="17.19" shape="3108.00,1083.20 3105.38,1090.83 3099.70,1097.97"/>
    </edge>
    <edge id=":17_20" function="internal">
        <lane id=":17_20_0" index="0" speed="9.84" length="6.30" shape="3104.80,1083.20 3105.51,1089.46"/>
    </edge>
    <edge id=":17_21" function="internal">
        <lane id=":17_21_0" index="0" speed="13.89" length="33.70" shape="3104.80,1083.20 3104.80,1116.80"/>
        <lane id=":17_21_1" index="1" speed="13.89" length="33.70" shape="3104.80,1083.20 3104.30,1093.20 3103.20,1100.00 3102.10,1106.80 3101.60,1116.80"/>
    </edge>
    <edge id=":17_23" function="internal">
        <lane id=":17_23_0" index="0" speed="11.07" length="3.63" shape="3101.60,1083.20 3100.71,1086.71"/>
    </edge>
    <edge id=":17_40" function="internal">
        <lane id=":17_40_0" index="0" speed="8.00" length="10.13" shape="3108.64,1087.20 3110.20,1089.80 3112.95,1091.45 3116.80,1092.00"/>
    </edge>
    <edge id=":17_41" function="internal">
        <lane id=":17_41_0" index="0" speed="12.62" length="19.65" shape="3099.70,1097.97 3098.93,1098.93 3090.83,1105.38 3083.20,1108.00"/>
    </edge>
    <edge id=":17_42" function="internal">
        <lane id=":17_42_0" index="0" speed="9.84" length="15.70" shape="3105.51,1089.46 3105.55,1089.85 3107.80,1094.60 3111.55,1097.45 3116.80,1098.40"/>
    </edge>
    <edge id=":17_43" function="internal">
        <lane id=":17_43_0" index="0" speed="11.07" length="24.48" shape="3100.71,1086.71 3099.94,1089.73 3095.65,1095.65 3089.73,1099.94 3083.20,1101.60"/>
    </edge>
    <edge id=":17_24" function="internal">
        <lane id=":17_24_0" index="0" speed="13.89" length="33.60" shape="3083.20,1088.80 3116.80,1088.80"/>
    </edge>
    <edge id=":17_25" function="internal">
        <lane id=":17_25_0" index="0" speed="8.00" length="4.07" shape="3083.20,1092.00 3087.05,1091.45 3087.20,1091.36"/>
    </edge>
    <edge id=":17_26" function="internal">
        <lane id=":17_26_0" index="0" speed="13.89" length="33.60" shape="3083.20,1092.00 3116.80,1092.00"/>
    </edge>
    <edge id=":17_27" function="internal">
        <lane id=":17_27_0" index="0" speed="12.62" length="17.19" shape="3083.20,1092.00 3090.83,1094.62 3097.97,1100.30"/>
    </edge>
    <edge id=":17_28" function="internal">
        <lane id=":17_28_0" index="0" speed="9.84" length="6.30" shape="3083.20,1095.20 3089.46,1094.49"/>
    </edge>
    <edge id=":17_29" function="internal">
        <lane id=":17_29_0" index="0" speed="13.89" length="33.70" shape="3083.20,1095.20 3116.80,1095.20"/>
        <lane id=":17_29_1" index="1" speed="13.89" length="33.70" shape="3083.20,1095.20 3093.20,1095.70 3100.00,1096.80 3106.80,1097.90 3116.80,1098.40"/>
    </edge>
    <edge id=":17_31" function="internal">
        <lane id=":17_31_0" index="0" speed="11.07" length="3.63" shape="3083.20,1098.40 3086.71,1099.29"/>
    </edge>
    <edge id=":17_44" function="internal">
        <lane id=":17_44_0" index="0" speed="8.00" length="10.13" shape="3087.20,1091.36 3089.80,1089.80 3091.45,1087.05 3092.00,1083.20"/>
    </edge>
    <edge id=":17_45" function="internal">
        <lane id=":17_45_0" index="0" speed="12.62" length="19.65" shape="3097.97,1100.30 3098.93,1101.07 3105.38,1109.17 3108.00,1116.80"/>
    </edge>
    <edge id=":17_46" function="internal">
        <lane id=":17_46_0" index="0" speed="9.84" length="15.70" shape="3089.46,1094.49 3089.85,1094.45 3094.60,1092.20 3097.45,1088.45 3098.40,1083.20"/>
    </edge>
    <edge id=":17_47" function="internal">
        <lane id=":17_47_0" index="0" speed="11.07" length="24.48" shape="3086.71,1099.29 3089.73,1100.06 3095.65,1104.35 3099.94,1110.27 3101.60,1116.80"/>
    </edge>
    <edge id=":18_0" function="internal">
        <lane id=":18_0_0" index="0" speed="13.89" length="33.60" shape="4088.80,1116.80 4088.80,1083.20"/>
    </edge>
    <edge id=":18_1" function="internal">
        <lane id=":18_1_0" index="0" speed="8.00" length="4.07" shape="4092.00,1116.80 4091.45,1112.95 4091.36,1112.80"/>
    </edge>
    <edge id=":18_2" function="internal">
        <lane id=":18_2_0" index="0" speed="13.89" length="33.60" shape="4092.00,1116.80 4092.00,1083.20"/>
    </edge>
    <edge id=":18_3" function="internal">
        <lane id=":18_3_0" index="0" speed="12.62" length="17.19" shape="4092.00,1116.80 4094.62,1109.17 4100.30,1102.03"/>
    </edge>
    <edge id=":18_4" function="internal">
        <lane id=":18_4_0" index="0" speed="9.84" length="6.30" shape="4095.20,1116.80 4094.49,1110.54"/>
    </edge>
    <edge id=":18_5" function="internal">
        <lane id=":18_5_0" index="0" speed="13.89" length="33.70" shape="4095.20,1116.80 4095.20,1083.20"/>
        <lane id=":18_5_1" index="1" speed="13.89" length="33.70" shape="4095.20,1116.80 4095.70,1106.80 4096.80,1100.00 4097.90,1093.20 4098.40,1083.20"/>
    </edge>
    <edge id=":18_7" function="internal">
        <lane id=":18_7_0" index="0" speed="11.07" length="3.63" shape="4098.40,1116.80 4099.29,1113.29"/>
    </edge>
    <edge id=":18_32" function="internal">
        <lane id=":18_32_0" index="0" speed="8.00" length="10.13" shape="4091.36,1112.80 4089.80,1110.20 4087.05,1108.55 4083.20,1108.00"/>
    </edge>
    <edge id=":18_33" function="internal">
        <lane id=":18_33_0" index="0" speed="12.62" length="19.65" shape="4100.30,1102.03 4101.07,1101.07 4109.18,1094.62 4116.80,1092.00"/>
    </edge>
    <edge id=":18_34" function="internal">
        <lane id=":18_34_0" index="0" speed="9.84" length="15.70" shape="4094.49,1110.54 4094.45,1110.15 4092.20,1105.40 4088.45,1102.55 4083.20,1101.60"/>
    </edge>
    <edge id=":18_35" function="internal">
        <lane id=":18_35_0" index="0" speed="11.07" length="24.48" shape="4099.29,1113.29 4100.06,1110.27 4104.35,1104.35 4110.27,1100.06 4116.80,1098.40"/>
    </edge>
    <edge id=":18_8" function="internal">
        <lane id=":18_8_0" index="0" speed="13.89" length="33.60" shape="4116.80,1111.20 4083.20,1111.20"/>
    </edge>
    <edge id=":18_9" function="internal">
        <lane id=":18_9_0" index="0" speed="8.00" length="4.07" shape="4116.80,1108.00 4112.95,1108.55 4112.80,1108.64"/>
    </edge>
    <edge id=":18_10" function="internal">
        <lane id=":18_10_0" index="0" speed="13.89" length="33.60" shape="4116.80,1108.00 4083.20,1108.00"/>
    </edge>
    <edge id=":18_11" function="internal">
        <lane id=":18_11_0" index="0" speed="12.62" length="17.19" shape="4116.80,1108.00 4109.18,1105.38 4102.03,1099.70"/>
    </edge>
    <edge id=":18_12" function="internal">
        <lane id=":18_12_0" index="0" speed="9.84" length="6.30" shape="4116.80,1104.80 4110.54,1105.51"/>
    </edge>
    <edge id=":18_13" function="internal">
        <lane id=":18_13_0" index="0" speed="13.89" length="33.70" shape="4116.80,1104.80 4083.20,1104.80"/>
        <lane id=":18_13_1" index="1" speed="13.89" length="33.70" shape="4116.80,1104.80 4106.80,1104.30 4100.00,1103.20 4093.20,1102.10 4083.20,1101.60"/>
    </edge>
    <edge id=":18_15" function="internal">
        <lane id=":18_15_0" index="0" speed="11.07" length="3.63" shape="4116.80,1101.60 4113.29,1100.71"/>
    </edge>
    <edge id=":18_36" function="internal">
        <lane id=":18_36_0" index="0" speed="8.00" length="10.13" shape="4112.80,1108.64 4110.20,1110.20 4108.55,1112.95 4108.00,1116.80"/>
    </edge>
    <edge id=":18_37" function="internal">
        <lane id=":18_37_0" index="0" speed="12.62" length="19.65" shape="4102.03,1099.70 4101.07,1098.93 4094.62,1090.83 4092.00,1083.20"/>
    </edge>
    <edge id=":18_38" function="internal">
        <lane id=":18_38_0" index="0" speed="9.84" length="15.70" shape="4110.54,1105.51 4110.15,1105.55 4105.40,1107.80 4102.55,1111.55 4101.60,1116.80"/>
    </edge>
    <edge id=":18_39" function="internal">
        <lane id=":18_39_0" index="0" speed="11.07" length="24.48" shape="4113.29,1100.71 4110.27,1099.94 4104.35,1095.65 4100.06,1089.73 4098.40,1083.20"/>
    </edge>
    <edge id=":18_16" function="internal">
        <lane id=":18_16_0" index="0" speed="13.89" length="33.60" shape="4111.20,1083.20 4111.20,1116.80"/>
    </edge>
    <edge id=":18_17" function="internal">
        <lane id=":18_17_0" index="0" speed="8.00" length="4.07" shape="4108.00,1083.20 4108.55,1087.05 4108.64,1087.20"/>
    </edge>
    <edge id=":18_18" function="internal">
        <lane id=":18_18_0" index="0" speed="13.89" length="33.60" shape="4108.00,1083.20 4108.00,1116.80"/>
    </edge>
    <edge id=":18_19" function="internal">
        <lane id=":18_19_0" index="0" speed="12.62" length="17.19" shape="4108.00,1083.20 4105.38,1090.83 4099.70,1097.97"/>
    </edge>
    <edge id=":18_20" function="internal">
        <lane id=":18_20_0" index="0" speed="9.84" length="6.30" shape="4104.80,1083.20 4105.51,1089.46"/>
    </edge>
    <edge id=":18_21" function="internal">
        <lane id=":18_21_0" index="0" speed="13.89" length="33.70" shape="4104.80,1083.20 4104.80,1116.80"/>
        <lane id=":18_21_1" index="1" speed="13.89" length="33.70" shape="4104.80,1083.20 4104.30,1093.20 4103.20,1100.00 4102.10,1106.80 4101.60,1116.80"/>
    </edge>
    <edge id=":18_23" function="internal">
        <lane id=":18_23_0" index="0" speed="11.07" length="3.63" shape="4101.60,1083.20 4100.71,1086.71"/>
    </edge>
    <edge id=":18_40" function="internal">
        <lane id=":18_40_0" index="0" speed="8.00" length="10.13" shape="4108.64,1087.20 4110.20,1089.80 4112.95,1091.45 4116.80,1092.00"/>
    </edge>
    <edge id=":18_41" function="internal">
        <lane id=":18_41_0" index="0" speed="12.62" length="19.65" shape="4099.70,1097.97 4098.93,1098.93 4090.83,1105.38 4083.20,1108.00"/>
    </edge>
    <edge id=":18_42" function="internal">
        <lane id=":18_42_0" index="0" speed="9.84" length="15.70" shape="4105.51,1089.46 4105.55,1089.85 4107.80,1094.60 4111.55,1097.45 4116.80,1098.40"/>
    </edge>
    <edge id=":18_43" function="internal">
        <lane id=":18_43_0" index="0" speed="11.07" length="24.48" shape="4100.71,1086.71 4099.94,1089.73 4095.65,1095.65 4089.73,1099.94 4083.20,1101.60"/>
    </edge>
    <edge id=":18_24" function="internal">
        <lane id=":18_24_0" index="0" speed="13.89" length="33.60" shape="4083.20,1088.80 4116.80,1088.80"/>
    </edge>
    <edge id=":18_25" function="internal">
        <lane id=":18_25_0" index="0" speed="8.00" length="4.07" shape="4083.20,1092.00 4087.05,1091.45 4087.20,1091.36"/>
    </edge>
    <edge id=":18_26" function="internal">
        <lane id=":18_26_0" index="0" speed="13.89" length="33.60" shape="4083.20,1092.00 4116.80,1092.00"/>
    </edge>
    <edge id=":18_27" function="internal">
        <lane id=":18_27_0" index="0" speed="12.62" length="17.19" shape="4083.20,1092.00 4090.83,1094.62 4097.97,1100.30"/>
    </edge>
    <edge id=":18_28" function="internal">
        <lane id=":18_28_0" index="0" speed="9.84" length="6.30" shape="4083.20,1095.20 4089.46,1094.49"/>
    </edge>
    <edge id=":18_29" function="internal">
        <lane id=":18_29_0" index="0" speed="13.89" length="33.70" shape="4083.20,1095.20 4116.80,1095.20"/>
        <lane id=":18_29_1" index="1" speed="13.89" length="33.70" shape="4083.20,1095.20 4093.20,1095.70 4100.00,1096.80 4106.80,1097.90 4116.80,1098.40"/>
    </edge>
    <edge id=":18_31" function="internal">
        <lane id=":18_31_0" index="0" speed="11.07" length="3.63" shape="4083.20,1098.40 4086.71,1099.29"/>
    </edge>
    <edge id=":18_44" function="internal">
        <lane id=":18_44_0" index="0" speed="8.00" length="10.13" shape="4087.20,1091.36 4089.80,1089.80 4091.45,1087.05 4092.00,1083.20"/>
    </edge>
    <edge id=":18_45" function="internal">
        <lane id=":18_45_0" index="0" speed="12.62" length="19.65" shape="4097.97,1100.30 4098.93,1101.07 4105.38,1109.17 4108.00,1116.80"/>
    </edge>
    <edge id=":18_46" function="internal">
        <lane id=":18_46_0" index="0" speed="9.84" length="15.70" shape="4089.46,1094.49 4089.85,1094.45 4094.60,1092.20 4097.45,1088.45 4098.40,1083.20"/>
    </edge>
    <edge id=":18_47" function="internal">
        <lane id=":18_47_0" index="0" speed="11.07" length="24.48" shape="4086.71,1099.29 4089.73,1100.06 4095.65,1104.35 4099.94,1110.27 4101.60,1116.80"/>
    </edge>
    <edge id=":19_0" function="internal">
        <lane id=":19_0_0" index="0" speed="13.89" length="33.60" shape="5088.80,1116.80 5088.80,1083.20"/>
    </edge>
    <edge id=":19_1" function="internal">
        <lane id=":19_1_0" index="0" speed="8.00" length="4.07" shape="5092.00,1116.80 5091.45,1112.95 5091.36,1112.80"/>
    </edge>
    <edge id=":19_2" function="internal">
        <lane id=":19_2_0" index="0" speed="13.89" length="33.60" shape="5092.00,1116.80 5092.00,1083.20"/>
    </edge>
    <edge id=":19_3" function="internal">
        <lane id=":19_3_0" index="0" speed="12.62" length="17.19" shape="5092.00,1116.80 5094.62,1109.17 5100.30,1102.03"/>
    </edge>
    <edge id=":19_4" function="internal">
        <lane id=":19_4_0" index="0" speed="9.84" length="6.30" shape="5095.20,1116.80 5094.49,1110.54"/>
    </edge>
    <edge id=":19_5" function="internal">
        <lane id=":19_5_0" index="0" speed="13.89" length="33.70" shape="5095.20,1116.80 5095.20,1083.20"/>
        <lane id=":19_5_1" index="1" speed="13.89" length="33.70" shape="5095.20,1116.80 5095.70,1106.80 5096.80,1100.00 5097.90,1093.20 5098.40,1083.20"/>
    </edge>
    <edge id=":19_7" function="internal">
        <lane id=":19_7_0" index="0" speed="11.07" length="3.63" shape="5098.40,1116.80 5099.29,1113.29"/>
    </edge>
    <edge id=":19_32" function="internal">
        <lane id=":19_32_0" index="0" speed="8.00" length="10.13" shape="5091.36,1112.80 5089.80,1110.20 5087.05,1108.55 5083.20,1108.00"/>
    </edge>
    <edge id=":19_33" function="internal">
        <lane id=":19_33_0" index="0" speed="12.62" length="19.65" shape="5100.30,1102.03 5101.07,1101.07 5109.18,1094.62 5116.80,1092.00"/>
    </edge>
    <edge id=":19_34" function="internal">
        <lane id=":19_34_0" index="0" speed="9.84" length="15.70" shape="5094.49,1110.54 5094.45,1110.15 5092.20,1105.40 5088.45,1102.55 5083.20,1101.60"/>
    </edge>
    <edge id=":19_35" function="internal">
        <lane id=":19_35_0" index="0" speed="11.07" length="24.48" shape="5099.29,1113.29 5100.06,1110.27 5104.35,1104.35 5110.27,1100.06 5116.80,1098.40"/>
    </edge>
    <edge id=":19_8" function="internal">
        <lane id=":19_8_0" index="0" speed="13.89" length="33.60" shape="5116.80,1111.20 5083.20,1111.20"/>
    </edge>
    <edge id=":19_9" function="internal">
        <lane id=":19_9_0" index="0" speed="8.00" length="4.07" shape="5116.80,1108.00 5112.95,1108.55 5112.80,1108.64"/>
    </edge>
    <edge id=":19_10" function="internal">
        <lane id=":19_10_0" index="0" speed="13.89" length="33.60" shape="5116.80,1108.00 5083.20,1108.00"/>
    </edge>
    <edge id=":19_11" function="internal">
        <lane id=":19_11_0" index="0" speed="12.62" length="17.19" shape="5116.80,1108.00 5109.18,1105.38 5102.03,1099.70"/>
    </edge>
    <edge id=":19_12" function="internal">
        <lane id=":19_12_0" index="0" speed="9.84" length="6.30" shape="5116.80,1104.80 5110.54,1105.51"/>
    </edge>
    <edge id=":19_13" function="internal">
        <lane id=":19_13_0" index="0" speed="13.89" length="33.70" shape="5116.80,1104.80 5083.20,1104.80"/>
        <lane id=":19_13_1" index="1" speed="13.89" length="33.70" shape="5116.80,1104.80 5106.80,1104.30 5100.00,1103.20 5093.20,1102.10 5083.20,1101.60"/>
    </edge>
    <edge id=":19_15" function="internal">
        <lane id=":19_15_0" index="0" speed="11.07" length="3.63" shape="5116.80,1101.60 5113.29,1100.71"/>
    </edge>
    <edge id=":19_36" function="internal">
        <lane id=":19_36_0" index="0" speed="8.00" length="10.13" shape="5112.80,1108.64 5110.20,1110.20 5108.55,1112.95 5108.00,1116.80"/>
    </edge>
    <edge id=":19_37" function="internal">
        <lane id=":19_37_0" index="0" speed="12.62" length="19.65" shape="5102.03,1099.70 5101.07,1098.93 5094.62,1090.83 5092.00,1083.20"/>
    </edge>
    <edge id=":19_38" function="internal">
        <lane id=":19_38_0" index="0" speed="9.84" length="15.70" shape="5110.54,1105.51 5110.15,1105.55 5105.40,1107.80 5102.55,1111.55 5101.60,1116.80"/>
    </edge>