<connections>

<!-- 


                    c              e              g              i              k
                    │              │              │              │              │
                    9             13             26             30             34
                    │              │              │              │              │
                   10             14             27             31             35
                    │              │              │              │              │
   a────1────2────[3]────4────5──[6]────7───20─[17]───21───22─[18]───23───24─[19]───25────8────b
                    │              │              │              │              │
                   11             15             28             32             36
                    │              │              │              │              │
                   12             16             29             33             37
                    │              │              │              │              │
                    d              f              h              j              l


   x=-1100        x=0          x=1000         x=2000         x=3000         x=4000        x=5100
   (Entry)      TLS-1          TLS-2          TLS-3          TLS-4          TLS-5         (Exit)

-->

	<!-- West to East-->
		
	<connection from="a_1" to="1_2" fromLane="0" toLane="0"/>
	
	
	<connection from="1_2" to="2_3" fromLane="0" toLane="0"/>
	<connection from="1_2" to="2_3" fromLane="0" toLane="1"/>
	
	

	
	<!-- 2_3 to 3_4 (through) -->
	<connection from="2_3" to="3_4" fromLane="0" toLane="0"/>
	<connection from="2_3" to="3_4" fromLane="1" toLane="1"/>
	
	<!-- 2_3 to 3_10 (right) -->
	<connection from="2_3" to="3_10" fromLane="1" toLane="1"/>
	
	<!-- 2_3 to 3_11 (left) -->
	<connection from="2_3" to="3_11" fromLane="1" toLane="1"/>
	
	
	
	
	<connection from="3_4" to="4_5" fromLane="0" toLane="0"/>
	<connection from="3_4" to="4_5" fromLane="1" toLane="0"/>
	
	
	<connection from="4_5" to="5_6" fromLane="0" toLane="0"/>
	<connection from="4_5" to="5_6" fromLane="0" toLane="1"/>
	
	
		

	<!-- 5_6 to 6_7 (through) -->
	<connection from="5_6" to="6_7" fromLane="0" toLane="0"/>
	<connection from="5_6" to="6_7" fromLane="1" toLane="1"/>
	
	<!-- 5_6 to 6_14 (right) -->
	<connection from="5_6" to="6_14" fromLane="1" toLane="1"/>
	
	<!-- 5_6 to 6_15 (left) -->
	<connection from="5_6" to="6_15" fromLane="1" toLane="1"/>
	
	
	
	<connection from="6_7" to="7_20" fromLane="0" toLane="0"/>
	<connection from="6_7" to="7_20" fromLane="1" toLane="0"/>
	
	
	<connection from="7_20" to="20_17" fromLane="0" toLane="0"/>
	<connection from="7_20" to="20_17" fromLane="0" toLane="1"/>
	
	
	
	
	
	<!-- East to West -->
	
	
	<connection from="b_8" to="8_25" fromLane="0" toLane="0"/>
	
	
	<connection from="8_25" to="25_19" fromLane="0" toLane="0"/>
	<connection from="8_25" to="25_19" fromLane="0" toLane="1"/>
	
	
	<!-- 25_19 to 19_24 (through) -->
	<connection from="25_19" to="19_24" fromLane="0" toLane="0"/>
	<connection from="25_19" to="19_24" fromLane="1" toLane="1"/>
	
	<!-- 25_19 to 19_36 (right) -->
	<connection from="25_19" to="19_36" fromLane="1" toLane="1"/>
	
	<!-- 25_19 to 19_35 (left) -->
	<connection from="25_19" to="19_35" fromLane="1" toLane="1"/>
	
	
	<connection from="19_24" to="24_23" fromLane="0" toLane="0"/>
	<connection from="19_24" to="24_23" fromLane="1" toLane="0"/>
	
	
	<connection from="24_23" to="23_18" fromLane="0" toLane="0"/>
	<connection from="24_23" to="23_18" fromLane="0" toLane="1"/>
	
	
	<!-- 23_18 to 18_22 (through) -->
	<connection from="23_18" to="18_22" fromLane="0" toLane="0"/>
	<connection from="23_18" to="18_22" fromLane="1" toLane="1"/>
	
	<!-- 23_18 to 18_32 (right) -->
	<connection from="23_18" to="18_32" fromLane="1" toLane="1"/>
	
	<!-- 23_18 to 18_31 (left) -->
	<connection from="23_18" to="18_31" fromLane="1" toLane="1"/>
	
	
	<connection from="18_22" to="22_21" fromLane="0" toLane="0"/>
	<connection from="18_22" to="22_21" fromLane="1" toLane="0"/>
	
	
	<connection from="22_21" to="21_17" fromLane="0" toLane="0"/>
	<connection from="22_21" to="21_17" fromLane="0" toLane="1"/>
	
	
	<!-- 21_17 to 17_20 (through) -->
	<connection from="21_17" to="17_20" fromLane="0" toLane="0"/>
	<connection from="21_17" to="17_20" fromLane="1" toLane="1"/>
	
	<!-- 21_17 to 17_28 (right) -->
	<connection from="21_17" to="17_28" fromLane="1" toLane="1"/>
	
	<!-- 21_17 to 17_27 (left) -->
	<connection from="21_17" to="17_27" fromLane="1" toLane="1"/>
	
	
	<connection from="17_20" to="20_7" fromLane="0" toLane="0"/>
	<connection from="17_20" to="20_7" fromLane="1" toLane="0"/>
	
	
	<connection from="20_7" to="7_6" fromLane="0" toLane="0"/>
	<connection from="20_7" to="7_6" fromLane="0" toLane="1"/>
	
	
	
	
	<!-- 7_6 to 6_5 (through) -->
	<connection from="7_6" to="6_5" fromLane="0" toLane="0"/>
	<connection from="7_6" to="6_5" fromLane="1" toLane="1"/>
	
	<!-- 7_6 to 6_15 (right) -->
	<connection from="7_6" to="6_15" fromLane="1" toLane="1"/>
	
	<!-- 7_6 to 6_14 (left) -->
	<connection from="7_6" to="6_14" fromLane="1" toLane="1"/>
	
	
	
	
	<connection from="6_5" to="5_4" fromLane="0" toLane="0"/>
	<connection from="6_5" to="5_4" fromLane="1" toLane="0"/>
	
	<connection from="5_4" to="4_3" fromLane="0" toLane="0"/>
	<connection from="5_4" to="4_3" fromLane="0" toLane="1"/>
	
	
	

	<!-- 4_3 to 3_2 (through) -->
	<connection from="4_3" to="3_2" fromLane="0" toLane="0"/>
	<connection from="4_3" to="3_2" fromLane="1" toLane="1"/>
	
	<!-- 4_3 to 3_11 (right) -->
	<connection from="4_3" to="3_11" fromLane="1" toLane="1"/>
	
	<!-- 4_3 to 3_10 (left) -->
	<connection from="4_3" to="3_10" fromLane="1" toLane="1"/>
	
	
	
	<connection from="3_2" to="2_1" fromLane="0" toLane="0"/>
	<connection from="3_2" to="2_1" fromLane="1" toLane="0"/>
	
	
	
	<connection from="2_1" to="1_a" fromLane="0" toLane="0"/>
	
		
	
	<!-- left vertical SN -->
		
	
	<connection from="c_9" to="9_10" fromLane="0" toLane="0"/>
	
	
	<connection from="9_10" to="10_3" fromLane="0" toLane="0"/>
	<connection from="9_10" to="10_3" fromLane="0" toLane="1"/>
	
	
	<!-- 10_3 to 3_11 (through) -->
	<connection from="10_3" to="3_11" fromLane="0" toLane="0"/>
	<connection from="10_3" to="3_11" fromLane="1" toLane="1"/>
	
	<!-- 10_3 to 3_4 (right) -->
	<connection from="10_3" to="3_4" fromLane="1" toLane="1"/>
	
	<!-- 10_3 to 3_2 (left) -->
	<connection from="10_3" to="3_2" fromLane="1" toLane="1"/>
	
	
	<connection from="3_11" to="11_12" fromLane="0" toLane="0"/>
	<connection from="3_11" to="11_12" fromLane="1" toLane="0"/>
		
	
	<connection from="11_12" to="12_d" fromLane="0" toLane="0"/>
	
		
	
	<!-- left vertical NS -->
		
	
	<connection from="d_12" to="12_11" fromLane="0" toLane="0"/>
	
		
	
	
	<connection from="12_11" to="11_3" fromLane="0" toLane="0"/>
	<connection from="12_11" to="11_3" fromLane="0" toLane="1"/>
	
	
	
	<!-- 11_3 to 3_10 (through) -->
	<connection from="11_3" to="3_10" fromLane="0" toLane="0"/>
	<connection from="11_3" to="3_10" fromLane="1" toLane="1"/>
	
	<!-- 11_3 to 3_2 (right) -->
	<connection from="11_3" to="3_2" fromLane="1" toLane="1"/>
	
	<!-- 11_3 to 3_4 (left) -->
	<connection from="11_3" to="3_4" fromLane="1" toLane="1"/>
			
		
	<connection from="3_10" to="10_9" fromLane="0" toLane="0"/>
	<connection from="3_10" to="10_9" fromLane="1" toLane="0"/>
	
				
	<connection from="10_9" to="9_c" fromLane="0" toLane="0"/>
		
	
	
	
	<!-- right vertical  SN-->
	
		
	<connection from="e_13" to="13_14" fromLane="0" toLane="0"/>
	
		
	
	<connection from="13_14" to="14_6" fromLane="0" toLane="0"/>
	<connection from="13_14" to="14_6" fromLane="0" toLane="1"/>
	
	
	<!-- 14_6 to 6_15 (through) -->
	<connection from="14_6" to="6_15" fromLane="0" toLane="0"/>
	<connection from="14_6" to="6_15" fromLane="1" toLane="1"/>
	
	<!-- 14_6 to 6_7 (right) -->
	<connection from="14_6" to="6_7" fromLane="1" toLane="1"/>
	
	<!-- 14_6 to 6_5 (left) -->
	<connection from="14_6" to="6_5" fromLane="1" toLane="1"/>
	
	
	<connection from="6_15" to="15_16" fromLane="0" toLane="0"/>
	<connection from="6_15" to="15_16" fromLane="1" toLane="0"/>
	
	
	
	<connection from="15_16" to="16_f" fromLane="0" toLane="0"/>
			
			
			
			
			
			
	<!-- right vertical NS --> 
	
	<connection from="f_16" to="16_15" fromLane="0" toLane="0"/>
	
	
	
	<connection from="16_15" to="15_6" fromLane="0" toLane="0"/>
	<connection from="16_15" to="15_6" fromLane="0" toLane="1"/>
	
	
	
	
	<!-- 15_6 to 6_14 (through) -->
	<connection from="15_6" to="6_14" fromLane="0" toLane="0"/>
	<connection from="15_6" to="6_14" fromLane="1" toLane="1"/>
	
	<!-- 15_6 to 6_5 (right) -->
	<connection from="15_6" to="6_5" fromLane="1" toLane="1"/>
	
	<!-- 15_6 to 6_7 (left) -->
	<connection from="15_6" to="6_7" fromLane="1" toLane="1"/>
		
	<connection from="6_14" to="14_13" fromLane="0" toLane="0"/>
	<connection from="6_14" to="14_13" fromLane="1" toLane="0"/>
	
	
	
	<connection from="14_13" to="13_e" fromLane="0" toLane="0"/>
	


	
	<!-- ========================================== -->
	<!-- TLS-3 (node 17) CONNECTIONS               -->
	<!-- ========================================== -->
	
	<connection from="7_20" to="20_17" fromLane="0" toLane="0"/>
	<connection from="7_20" to="20_17" fromLane="0" toLane="1"/>
	
	<!-- 20_17 to 17_21 (through) -->
	<connection from="20_17" to="17_21" fromLane="1" toLane="1"/>
	<connection from="20_17" to="17_21" fromLane="0" toLane="0"/>
	
	<!-- 20_17 to 17_27 (right) -->
	<connection from="20_17" to="17_27" fromLane="1" toLane="1"/>
	
	<!-- 20_17 to 17_28 (left) -->
	<connection from="20_17" to="17_28" fromLane="1" toLane="1"/>
	
	<connection from="17_21" to="21_22" fromLane="0" toLane="0"/>
	<connection from="17_21" to="21_22" fromLane="1" toLane="0"/>
	
	<connection from="21_22" to="22_18" fromLane="0" toLane="1"/>
	<connection from="21_22" to="22_18" fromLane="0" toLane="0"/>
	
	<connection from="22_21" to="21_17" fromLane="0" toLane="1"/>
	<connection from="22_21" to="21_17" fromLane="0" toLane="0"/>
	
	<connection from="21_17" to="17_28" fromLane="1" toLane="1"/>
	<connection from="21_17" to="17_20" fromLane="1" toLane="1"/>
	<connection from="21_17" to="17_27" fromLane="1" toLane="1"/>
	<connection from="21_17" to="17_20" fromLane="0" toLane="0"/>
	
	<connection from="17_20" to="20_7" fromLane="1" toLane="0"/>
	<connection from="17_20" to="20_7" fromLane="0" toLane="0"/>
	
	<connection from="20_7" to="7_6" fromLane="0" toLane="1"/>
	<connection from="20_7" to="7_6" fromLane="0" toLane="0"/>
	
	<connection from="g_26" to="26_27" fromLane="0" toLane="0"/>
	<connection from="g_26" to="26_27" fromLane="0" toLane="0"/>
	
	<connection from="26_27" to="27_17" fromLane="0" toLane="1"/>
	<connection from="26_27" to="27_17" fromLane="0" toLane="0"/>
	
	<!-- 27_17 to 17_28 (through) -->
	<connection from="27_17" to="17_28" fromLane="1" toLane="1"/>
	<connection from="27_17" to="17_28" fromLane="0" toLane="0"/>
	
	<!-- 27_17 to 17_21 (right) -->
	<connection from="27_17" to="17_21" fromLane="1" toLane="1"/>
	
	<!-- 27_17 to 17_20 (left) -->
	<connection from="27_17" to="17_20" fromLane="1" toLane="1"/>
	
	<connection from="17_28" to="28_29" fromLane="1" toLane="0"/>
	<connection from="17_28" to="28_29" fromLane="0" toLane="0"/>
	
	<connection from="28_29" to="29_h" fromLane="0" toLane="0"/>
	<connection from="28_29" to="29_h" fromLane="0" toLane="0"/>
	
	<connection from="h_29" to="29_28" fromLane="0" toLane="0"/>
	<connection from="h_29" to="29_28" fromLane="0" toLane="0"/>
	
	<connection from="29_28" to="28_17" fromLane="0" toLane="1"/>
	<connection from="29_28" to="28_17" fromLane="0" toLane="0"/>
	
	<!-- 28_17 to 17_27 (through) -->
	<connection from="28_17" to="17_27" fromLane="1" toLane="1"/>
	<connection from="28_17" to="17_27" fromLane="0" toLane="0"/>
	
	<!-- 28_17 to 17_20 (right) -->
	<connection from="28_17" to="17_20" fromLane="1" toLane="1"/>
	
	<!-- 28_17 to 17_21 (left) -->
	<connection from="28_17" to="17_21" fromLane="1" toLane="1"/>
	
	<connection from="17_27" to="27_26" fromLane="1" toLane="0"/>
	<connection from="17_27" to="27_26" fromLane="0" toLane="0"/>
	
	<connection from="27_26" to="26_g" fromLane="0" toLane="0"/>
	<connection from="27_26" to="26_g" fromLane="0" toLane="0"/>
	
	
	<!-- ========================================== -->
	<!-- TLS-4 (node 18) CONNECTIONS               -->
	<!-- ========================================== -->
	
	<!-- 22_18 to 18_23 (through) -->
	<connection from="22_18" to="18_23" fromLane="1" toLane="1"/>
	<connection from="22_18" to="18_23" fromLane="0" toLane="0"/>
	
	<!-- 22_18 to 18_31 (right) -->
	<connection from="22_18" to="18_31" fromLane="1" toLane="1"/>
	
	<!-- 22_18 to 18_32 (left) -->
	<connection from="22_18" to="18_32" fromLane="1" toLane="1"/>
	
	<connection from="18_23" to="23_24" fromLane="0" toLane="0"/>
	<connection from="18_23" to="23_24" fromLane="1" toLane="0"/>
	
	<connection from="23_24" to="24_19" fromLane="0" toLane="1"/>
	<connection from="23_24" to="24_19" fromLane="0" toLane="0"/>
	
	<connection from="24_23" to="23_18" fromLane="0" toLane="1"/>
	<connection from="24_23" to="23_18" fromLane="0" toLane="0"/>
	
	<connection from="23_18" to="18_32" fromLane="1" toLane="1"/>
	<connection from="23_18" to="18_22" fromLane="1" toLane="1"/>
	<connection from="23_18" to="18_31" fromLane="1" toLane="1"/>
	<connection from="23_18" to="18_22" fromLane="0" toLane="0"/>
	
	<connection from="18_22" to="22_21" fromLane="1" toLane="0"/>
	<connection from="18_22" to="22_21" fromLane="0" toLane="0"/>
	
	<connection from="i_30" to="30_31" fromLane="0" toLane="0"/>
	<connection from="i_30" to="30_31" fromLane="0" toLane="0"/>
	
	<connection from="30_31" to="31_18" fromLane="0" toLane="1"/>
	<connection from="30_31" to="31_18" fromLane="0" toLane="0"/>
	
	<!-- 31_18 to 18_32 (through) -->
	<connection from="31_18" to="18_32" fromLane="1" toLane="1"/>
	<connection from="31_18" to="18_32" fromLane="0" toLane="0"/>
	
	<!-- 31_18 to 18_23 (right) -->
	<connection from="31_18" to="18_23" fromLane="1" toLane="1"/>
	
	<!-- 31_18 to 18_22 (left) -->
	<connection from="31_18" to="18_22" fromLane="1" toLane="1"/>
	
	<connection from="18_32" to="32_33" fromLane="1" toLane="0"/>
	<connection from="18_32" to="32_33" fromLane="0" toLane="0"/>
	
	<connection from="32_33" to="33_j" fromLane="0" toLane="0"/>
	<connection from="32_33" to="33_j" fromLane="0" toLane="0"/>
	
	<connection from="j_33" to="33_32" fromLane="0" toLane="0"/>
	<connection from="j_33" to="33_32" fromLane="0" toLane="0"/>
	
	<connection from="33_32" to="32_18" fromLane="0" toLane="1"/>
	<connection from="33_32" to="32_18" fromLane="0" toLane="0"/>
	
	<!-- 32_18 to 18_31 (through) -->
	<connection from="32_18" to="18_31" fromLane="1" toLane="1"/>
	<connection from="32_18" to="18_31" fromLane="0" toLane="0"/>
	
	<!-- 32_18 to 18_22 (right) -->
	<connection from="32_18" to="18_22" fromLane="1" toLane="1"/>
	
	<!-- 32_18 to 18_23 (left) -->
	<connection from="32_18" to="18_23" fromLane="1" toLane="1"/>
	
	<connection from="18_31" to="31_30" fromLane="1" toLane="0"/>
	<connection from="18_31" to="31_30" fromLane="0" toLane="0"/>
	
	<connection from="31_30" to="30_i" fromLane="0" toLane="0"/>
	<connection from="31_30" to="30_i" fromLane="0" toLane="0"/>
	
	
	<!-- ========================================== -->
	<!-- TLS-5 (node 19) CONNECTIONS               -->
	<!-- ========================================== -->
	
	<!-- 24_19 to 19_25 (through) -->
	<connection from="24_19" to="19_25" fromLane="1" toLane="1"/>
	<connection from="24_19" to="19_25" fromLane="0" toLane="0"/>
	
	<!-- 24_19 to 19_35 (right) -->
	<connection from="24_19" to="19_35" fromLane="1" toLane="1"/>
	
	<!-- 24_19 to 19_36 (left) -->
	<connection from="24_19" to="19_36" fromLane="1" toLane="1"/>
	
	<connection from="19_25" to="25_8" fromLane="0" toLane="0"/>
	<connection from="19_25" to="25_8" fromLane="1" toLane="0"/>
	
	<connection from="25_8" to="8_b" fromLane="0" toLane="0"/>
	<connection from="25_8" to="8_b" fromLane="0" toLane="0"/>
	
	<connection from="8_25" to="25_19" fromLane="0" toLane="1"/>
	<connection from="8_25" to="25_19" fromLane="0" toLane="0"/>
	
	<connection from="25_19" to="19_36" fromLane="1" toLane="1"/>
	<connection from="25_19" to="19_24" fromLane="1" toLane="1"/>
	<connection from="25_19" to="19_35" fromLane="1" toLane="1"/>
	<connection from="25_19" to="19_24" fromLane="0" toLane="0"/>
	
	<connection from="19_24" to="24_23" fromLane="1" toLane="0"/>
	<connection from="19_24" to="24_23" fromLane="0" toLane="0"/>
	
	<connection from="k_34" to="34_35" fromLane="0" toLane="0"/>
	<connection from="k_34" to="34_35" fromLane="0" toLane="0"/>
	
	<connection from="34_35" to="35_19" fromLane="0" toLane="1"/>
	<connection from="34_35" to="35_19" fromLane="0" toLane="0"/>
	
	<!-- 35_19 to 19_36 (through) -->
	<connection from="35_19" to="19_36" fromLane="1" toLane="1"/>
	<connection from="35_19" to="19_36" fromLane="0" toLane="0"/>
	
	<!-- 35_19 to 19_25 (right) -->
	<connection from="35_19" to="19_25" fromLane="1" toLane="1"/>
	
	<!-- 35_19 to 19_24 (left) -->
	<connection from="35_19" to="19_24" fromLane="1" toLane="1"/>
	
	<connection from="19_36" to="36_37" fromLane="1" toLane="0"/>
	<connection from="19_36" to="36_37" fromLane="0" toLane="0"/>
	
	<connection from="36_37" to="37_l" fromLane="0" toLane="0"/>
	<connection from="36_37" to="37_l" fromLane="0" toLane="0"/>
	
	<connection from="l_37" to="37_36" fromLane="0" toLane="0"/>
	<connection from="l_37" to="37_36" fromLane="0" toLane="0"/>
	
	<connection from="37_36" to="36_19" fromLane="0" toLane="1"/>
	<connection from="37_36" to="36_19" fromLane="0" toLane="0"/>
	
	<!-- 36_19 to 19_35 (through) -->
	<connection from="36_19" to="19_35" fromLane="1" toLane="1"/>
	<connection from="36_19" to="19_35" fromLane="0" toLane="0"/>
	
	<!-- 36_19 to 19_24 (right) -->
	<connection from="36_19" to="19_24" fromLane="1" toLane="1"/>
	
	<!-- 36_19 to 19_25 (left) -->
	<connection from="36_19" to="19_25" fromLane="1" toLane="1"/>
	
	<connection from="19_35" to="35_34" fromLane="1" toLane="0"/>
	<connection from="19_35" to="35_34" fromLane="0" toLane="0"/>
	
	<connection from="35_34" to="34_k" fromLane="0" toLane="0"/>
	<connection from="35_34" to="34_k" fromLane="0" toLane="0"/>
	
	

<!-- ============================================================ -->
<!-- BICYCLE & PEDESTRIAN LANE CONNECTIONS                        -->
<!-- Lane 0: Pedestrian (through only)                            -->
<!-- Lane 1: Bicycle inner (through)                              -->
<!-- Lane 2: Bicycle outer (through + turns)                      -->
<!-- ============================================================ -->

<!-- ========================================== -->
<!-- HORIZONTAL: West to East                  -->
<!-- ========================================== -->

<!-- Entry to TLS-1 @ node 3 -->
<connection from="a_3" to="3_6" fromLane="0" toLane="0"/>   <!-- pedestrian through -->
<connection from="a_3" to="3_6" fromLane="1" toLane="1"/>   <!-- bicycle through -->
<connection from="a_3" to="3_6" fromLane="2" toLane="2"/>   <!-- bicycle through -->

<!-- a_3 to verticals (turns at TLS-1) -->
<connection from="a_3" to="3_d" fromLane="2" toLane="2"/>   <!-- bicycle right -->
<connection from="a_3" to="3_c" fromLane="2" toLane="2"/>   <!-- bicycle left -->


<!-- TLS-1 to TLS-2 @ node 6 -->
<connection from="3_6" to="6_17" fromLane="0" toLane="0"/>  <!-- pedestrian through -->
<connection from="3_6" to="6_17" fromLane="1" toLane="1"/>  <!-- bicycle through -->
<connection from="3_6" to="6_17" fromLane="2" toLane="2"/>  <!-- bicycle through -->

<!-- 3_6 to verticals (turns at TLS-2) -->
<connection from="3_6" to="6_f" fromLane="2" toLane="2"/>   <!-- bicycle right -->
<connection from="3_6" to="6_e" fromLane="2" toLane="2"/>   <!-- bicycle left -->


<!-- TLS-2 to TLS-3 @ node 17 -->
<connection from="6_17" to="17_18" fromLane="0" toLane="0"/> <!-- pedestrian through -->
<connection from="6_17" to="17_18" fromLane="1" toLane="1"/> <!-- bicycle through -->
<connection from="6_17" to="17_18" fromLane="2" toLane="2"/> <!-- bicycle through -->

<!-- 6_17 to verticals (turns at TLS-3) -->
<connection from="6_17" to="17_h" fromLane="2" toLane="2"/>  <!-- bicycle right -->
<connection from="6_17" to="17_g" fromLane="2" toLane="2"/>  <!-- bicycle left -->


<!-- TLS-3 to TLS-4 @ node 18 -->
<connection from="17_18" to="18_19" fromLane="0" toLane="0"/> <!-- pedestrian through -->
<connection from="17_18" to="18_19" fromLane="1" toLane="1"/> <!-- bicycle through -->
<connection from="17_18" to="18_19" fromLane="2" toLane="2"/> <!-- bicycle through -->

<!-- 17_18 to verticals (turns at TLS-4) -->
<connection from="17_18" to="18_j" fromLane="2" toLane="2"/>  <!-- bicycle right -->
<connection from="17_18" to="18_i" fromLane="2" toLane="2"/>  <!-- bicycle left -->


<!-- TLS-4 to TLS-5 @ node 19 -->
<connection from="18_19" to="19_b" fromLane="0" toLane="0"/>  <!-- pedestrian through -->
<connection from="18_19" to="19_b" fromLane="1" toLane="1"/>  <!-- bicycle through -->
<connection from="18_19" to="19_b" fromLane="2" toLane="2"/>  <!-- bicycle through -->

<!-- 18_19 to verticals (turns at TLS-5) -->
<connection from="18_19" to="19_l" fromLane="2" toLane="2"/>  <!-- bicycle right -->
<connection from="18_19" to="19_k" fromLane="2" toLane="2"/>  <!-- bicycle left -->


<!-- ========================================== -->
<!-- HORIZONTAL: East to West                  -->
<!-- ========================================== -->

<!-- Entry to TLS-5 @ node 19 -->
<connection from="b_19" to="19_18" fromLane="0" toLane="0"/>  <!-- pedestrian through -->
<connection from="b_19" to="19_18" fromLane="1" toLane="1"/>  <!-- bicycle through -->
<connection from="b_19" to="19_18" fromLane="2" toLane="2"/>  <!-- bicycle through -->

<!-- b_19 to verticals (turns at TLS-5) -->
<connection from="b_19" to="19_k" fromLane="2" toLane="2"/>   <!-- bicycle right -->
<connection from="b_19" to="19_l" fromLane="2" toLane="2"/>   <!-- bicycle left -->


<!-- TLS-5 to TLS-4 @ node 18 -->
<connection from="19_18" to="18_17" fromLane="0" toLane="0"/> <!-- pedestrian through -->
<connection from="19_18" to="18_17" fromLane="1" toLane="1"/> <!-- bicycle through -->
<connection from="19_18" to="18_17" fromLane="2" toLane="2"/> <!-- bicycle through -->

<!-- 19_18 to verticals (turns at TLS-4) -->
<connection from="19_18" to="18_i" fromLane="2" toLane="2"/>  <!-- bicycle right -->
<connection from="19_18" to="18_j" fromLane="2" toLane="2"/>  <!-- bicycle left -->


<!-- TLS-4 to TLS-3 @ node 17 -->
<connection from="18_17" to="17_6" fromLane="0" toLane="0"/>  <!-- pedestrian through -->
<connection from="18_17" to="17_6" fromLane="1" toLane="1"/>  <!-- bicycle through -->
<connection from="18_17" to="17_6" fromLane="2" toLane="2"/>  <!-- bicycle through -->

<!-- 18_17 to verticals (turns at TLS-3) -->
<connection from="18_17" to="17_g" fromLane="2" toLane="2"/>  <!-- bicycle right -->
<connection from="18_17" to="17_h" fromLane="2" toLane="2"/>  <!-- bicycle left -->


<!-- TLS-3 to TLS-2 @ node 6 -->
<connection from="17_6" to="6_3" fromLane="0" toLane="0"/>    <!-- pedestrian through -->
<connection from="17_6" to="6_3" fromLane="1" toLane="1"/>    <!-- bicycle through -->
<connection from="17_6" to="6_3" fromLane="2" toLane="2"/>    <!-- bicycle through -->

<!-- 17_6 to verticals (turns at TLS-2) -->
<connection from="17_6" to="6_e" fromLane="2" toLane="2"/>    <!-- bicycle right -->
<connection from="17_6" to="6_f" fromLane="2" toLane="2"/>    <!-- bicycle left -->


<!-- TLS-2 to TLS-1 @ node 3 -->
<connection from="6_3" to="3_a" fromLane="0" toLane="0"/>     <!-- pedestrian through -->
<connection from="6_3" to="3_a" fromLane="1" toLane="1"/>     <!-- bicycle through -->
<connection from="6_3" to="3_a" fromLane="2" toLane="2"/>     <!-- bicycle through -->

<!-- 6_3 to verticals (turns at TLS-1) -->
<connection from="6_3" to="3_c" fromLane="2" toLane="2"/>     <!-- bicycle right -->
<connection from="6_3" to="3_d" fromLane="2" toLane="2"/>     <!-- bicycle left -->


<!-- ========================================== -->
<!-- VERTICAL @ TLS-1 (node 3): South to North -->
<!-- ========================================== -->

<!-- Entry to TLS-1 -->
<connection from="c_3" to="3_d" fromLane="0" toLane="0"/>     <!-- pedestrian through -->
<connection from="c_3" to="3_d" fromLane="1" toLane="1"/>     <!-- bicycle through -->
<connection from="c_3" to="3_d" fromLane="2" toLane="2"/>     <!-- bicycle through -->

<!-- c_3 to horizontals (turns at TLS-1) -->
<connection from="c_3" to="3_6" fromLane="2" toLane="2"/>     <!-- bicycle right -->
<connection from="c_3" to="3_a" fromLane="2" toLane="2"/>     <!-- bicycle left -->


<!-- VERTICAL @ TLS-1 (node 3): North to South -->

<!-- Entry to TLS-1 -->
<connection from="d_3" to="3_c" fromLane="0" toLane="0"/>     <!-- pedestrian through -->
<connection from="d_3" to="3_c" fromLane="1" toLane="1"/>     <!-- bicycle through -->
<connection from="d_3" to="3_c" fromLane="2" toLane="2"/>     <!-- bicycle through -->

<!-- d_3 to horizontals (turns at TLS-1) -->
<connection from="d_3" to="3_a" fromLane="2" toLane="2"/>     <!-- bicycle right -->
<connection from="d_3" to="3_6" fromLane="2" toLane="2"/>     <!-- bicycle left -->


<!-- ========================================== -->
<!-- VERTICAL @ TLS-2 (node 6): South to North -->
<!-- ========================================== -->

<!-- Entry to TLS-2 -->
<connection from="e_6" to="6_f" fromLane="0" toLane="0"/>     <!-- pedestrian through -->
<connection from="e_6" to="6_f" fromLane="1" toLane="1"/>     <!-- bicycle through -->
<connection from="e_6" to="6_f" fromLane="2" toLane="2"/>     <!-- bicycle through -->

<!-- e_6 to horizontals (turns at TLS-2) -->
<connection from="e_6" to="6_17" fromLane="2" toLane="2"/>    <!-- bicycle right -->
<connection from="e_6" to="6_3" fromLane="2" toLane="2"/>     <!-- bicycle left -->


<!-- VERTICAL @ TLS-2 (node 6): North to South -->

<!-- Entry to TLS-2 -->
<connection from="f_6" to="6_e" fromLane="0" toLane="0"/>     <!-- pedestrian through -->
<connection from="f_6" to="6_e" fromLane="1" toLane="1"/>     <!-- bicycle through -->
<connection from="f_6" to="6_e" fromLane="2" toLane="2"/>     <!-- bicycle through -->

<!-- f_6 to horizontals (turns at TLS-2) -->
<connection from="f_6" to="6_3" fromLane="2" toLane="2"/>     <!-- bicycle right -->
<connection from="f_6" to="6_17" fromLane="2" toLane="2"/>    <!-- bicycle left -->


<!-- ========================================== -->
<!-- VERTICAL @ TLS-3 (node 17): South to North -->
<!-- ========================================== -->

<!-- Entry to TLS-3 -->
<connection from="g_17" to="17_h" fromLane="0" toLane="0"/>   <!-- pedestrian through -->
<connection from="g_17" to="17_h" fromLane="1" toLane="1"/>   <!-- bicycle through -->
<connection from="g_17" to="17_h" fromLane="2" toLane="2"/>   <!-- bicycle through -->

<!-- g_17 to horizontals (turns at TLS-3) -->
<connection from="g_17" to="17_18" fromLane="2" toLane="2"/>  <!-- bicycle right -->
<connection from="g_17" to="17_6" fromLane="2" toLane="2"/>   <!-- bicycle left -->


<!-- VERTICAL @ TLS-3 (node 17): North to South -->

<!-- Entry to TLS-3 -->
<connection from="h_17" to="17_g" fromLane="0" toLane="0"/>   <!-- pedestrian through -->
<connection from="h_17" to="17_g" fromLane="1" toLane="1"/>   <!-- bicycle through -->
<connection from="h_17" to="17_g" fromLane="2" toLane="2"/>   <!-- bicycle through -->

<!-- h_17 to horizontals (turns at TLS-3) -->
<connection from="h_17" to="17_6" fromLane="2" toLane="2"/>   <!-- bicycle right -->
<connection from="h_17" to="17_18" fromLane="2" toLane="2"/>  <!-- bicycle left -->


<!-- ========================================== -->
<!-- VERTICAL @ TLS-4 (node 18): South to North -->
<!-- ========================================== -->

<!-- Entry to TLS-4 -->
<connection from="i_18" to="18_j" fromLane="0" toLane="0"/>   <!-- pedestrian through -->
<connection from="i_18" to="18_j" fromLane="1" toLane="1"/>   <!-- bicycle through -->
<connection from="i_18" to="18_j" fromLane="2" toLane="2"/>   <!-- bicycle through -->

<!-- i_18 to horizontals (turns at TLS-4) -->
<connection from="i_18" to="18_19" fromLane="2" toLane="2"/>  <!-- bicycle right -->
<connection from="i_18" to="18_17" fromLane="2" toLane="2"/>  <!-- bicycle left -->


<!-- VERTICAL @ TLS-4 (node 18): North to South -->

<!-- Entry to TLS-4 -->
<connection from="j_18" to="18_i" fromLane="0" toLane="0"/>   <!-- pedestrian through -->
<connection from="j_18" to="18_i" fromLane="1" toLane="1"/>   <!-- bicycle through -->
<connection from="j_18" to="18_i" fromLane="2" toLane="2"/>   <!-- bicycle through -->

<!-- j_18 to horizontals (turns at TLS-4) -->
<connection from="j_18" to="18_17" fromLane="2" toLane="2"/>  <!-- bicycle right -->
<connection from="j_18" to="18_19" fromLane="2" toLane="2"/>  <!-- bicycle left -->


<!-- ========================================== -->
<!-- VERTICAL @ TLS-5 (node 19): South to North -->
<!-- ========================================== -->

<!-- Entry to TLS-5 -->
<connection from="k_19" to="19_l" fromLane="0" toLane="0"/>   <!-- pedestrian through -->
<connection from="k_19" to="19_l" fromLane="1" toLane="1"/>   <!-- bicycle through -->
<connection from="k_19" to="19_l" fromLane="2" toLane="2"/>   <!-- bicycle through -->

<!-- k_19 to horizontals (turns at TLS-5) -->
<connection from="k_19" to="19_b" fromLane="2" toLane="2"/>   <!-- bicycle right -->
<connection from="k_19" to="19_18" fromLane="2" toLane="2"/>  <!-- bicycle left -->


<!-- VERTICAL @ TLS-5 (node 19): North to South -->

<!-- Entry to TLS-5 -->
<connection from="l_19" to="19_k" fromLane="0" toLane="0"/>   <!-- pedestrian through -->
<connection from="l_19" to="19_k" fromLane="1" toLane="1"/>   <!-- bicycle through -->