<?xml version="1.0" encoding="UTF-8"?>

<!-- generated on 2025-11-26 17:28:24 by Eclipse SUMO netedit Version 1.24.0
<neteditConfiguration xmlns:xsi="http://www.w3.org/2001/XMLSchema-instance" xsi:noNamespaceSchemaLocation="http://sumo.dlr.de/xsd/neteditConfiguration.xsd">

    <input>
        <sumo-net-file value="/Users/chaklader/PycharmProjects/SignalSyncPro/infrastructure/developed/drl/multi_agent/network/common.net.xml"/>
    </input>

    <output>
        <output-file value="/Users/chaklader/PycharmProjects/SignalSyncPro/infrastructure/developed/drl/multi_agent/network/common.net.xml"/>
    </output>

    <processing>
        <geometry.min-radius.fix.railways value="false"/>
        <geometry.avoid-overlap value="false"/>
        <geometry.max-grade.fix value="false"/>
        <offset.disable-normalization value="true"/>
        <lefthand value="0"/>
    </processing>

    <junctions>
        <no-turnarounds value="true"/>
        <junctions.corner-detail value="5"/>
        <junctions.limit-turn-speed value="5.50"/>
        <rectangular-lane-cut value="0"/>
    </junctions>

    <pedestrian>
        <walkingareas value="0"/>
    </pedestrian>

</neteditConfiguration>
-->

<net version="1.20" junctionCornerDetail="5" limitTurnSpeed="5.50" avoidOverlap="0" xmlns:xsi="http://www.w3.org/2001/XMLSchema-instance" xsi:noNamespaceSchemaLocation="http://sumo.dlr.de/xsd/net_file.xsd">

    <location netOffset="1100.00,1100.00" convBoundary="0.00,0.00,6200.00,2200.00" origBoundary="-1100.00,-1100.00,5100.00,1100.00" projParameter="!"/>

    <edge id=":1_0" function="internal">
        <lane id=":1_0_0" index="0" speed="13.89" length="0.10" shape="100.00,1101.60 100.00,1101.60"/>
    </edge>
    <edge id=":1_1" function="internal">
        <lane id=":1_1_0" index="0" speed="13.89" length="0.10" shape="100.00,1098.40 100.00,1098.40"/>
    </edge>
    <edge id=":10_0" function="internal">
        <lane id=":10_0_0" index="0" speed="13.89" length="8.40" shape="1095.20,999.00 1095.70,996.54 1096.80,995.00 1097.90,993.46 1098.40,991.00"/>
        <lane id=":10_0_1" index="1" speed="13.89" length="8.40" shape="1098.40,999.00 1098.40,991.00"/>
    </edge>
    <edge id=":10_2" function="internal">
        <lane id=":10_2_0" index="0" speed="13.89" length="8.40" shape="1101.60,991.00 1102.10,993.46 1103.20,995.00 1104.30,996.54 1104.80,999.00"/>
        <lane id=":10_2_1" index="1" speed="13.89" length="8.40" shape="1101.60,991.00 1101.60,999.00"/>
    </edge>
    <edge id=":11_0" function="internal">
        <lane id=":11_0_0" index="0" speed="13.89" length="8.40" shape="1098.40,1209.00 1097.90,1206.54 1096.80,1205.00 1095.70,1203.46 1095.20,1201.00"/>
        <lane id=":11_0_1" index="1" speed="13.89" length="8.40" shape="1098.40,1209.00 1098.40,1201.00"/>
    </edge>
    <edge id=":11_2" function="internal">
        <lane id=":11_2_0" index="0" speed="13.89" length="8.40" shape="1104.80,1201.00 1104.30,1203.46 1103.20,1205.00 1102.10,1206.54 1101.60,1209.00"/>
        <lane id=":11_2_1" index="1" speed="13.89" length="8.40" shape="1101.60,1201.00 1101.60,1209.00"/>
    </edge>
    <edge id=":12_0" function="internal">
        <lane id=":12_0_0" index="0" speed="13.89" length="0.10" shape="1098.40,2100.00 1098.40,2100.00"/>
    </edge>
    <edge id=":12_1" function="internal">
        <lane id=":12_1_0" index="0" speed="13.89" length="0.10" shape="1101.60,2100.00 1101.60,2100.00"/>
    </edge>
    <edge id=":13_0" function="internal">
        <lane id=":13_0_0" index="0" speed="13.89" length="0.10" shape="2098.40,100.00 2098.40,100.00"/>
    </edge>
    <edge id=":13_1" function="internal">
        <lane id=":13_1_0" index="0" speed="13.89" length="0.10" shape="2101.60,100.00 2101.60,100.00"/>
    </edge>
    <edge id=":14_0" function="internal">
        <lane id=":14_0_0" index="0" speed="13.89" length="8.40" shape="2095.20,999.00 2095.70,996.54 2096.80,995.00 2097.90,993.46 2098.40,991.00"/>
        <lane id=":14_0_1" index="1" speed="13.89" length="8.40" shape="2098.40,999.00 2098.40,991.00"/>
    </edge>
    <edge id=":14_2" function="internal">
        <lane id=":14_2_0" index="0" speed="13.89" length="8.40" shape="2101.60,991.00 2102.10,993.46 2103.20,995.00 2104.30,996.54 2104.80,999.00"/>
        <lane id=":14_2_1" index="1" speed="13.89" length="8.40" shape="2101.60,991.00 2101.60,999.00"/>
    </edge>
    <edge id=":15_0" function="internal">
        <lane id=":15_0_0" index="0" speed="13.89" length="8.40" shape="2098.40,1209.00 2097.90,1206.54 2096.80,1205.00 2095.70,1203.46 2095.20,1201.00"/>
        <lane id=":15_0_1" index="1" speed="13.89" length="8.40" shape="2098.40,1209.00 2098.40,1201.00"/>
    </edge>
    <edge id=":15_2" function="internal">
        <lane id=":15_2_0" index="0" speed="13.89" length="8.40" shape="2104.80,1201.00 2104.30,1203.46 2103.20,1205.00 2102.10,1206.54 2101.60,1209.00"/>
        <lane id=":15_2_1" index="1" speed="13.89" length="8.40" shape="2101.60,1201.00 2101.60,1209.00"/>
    </edge>
    <edge id=":16_0" function="internal">
        <lane id=":16_0_0" index="0" speed="13.89" length="0.10" shape="2098.40,2100.00 2098.40,2100.00"/>
    </edge>
    <edge id=":16_1" function="internal">
        <lane id=":16_1_0" index="0" speed="13.89" length="0.10" shape="2101.60,2100.00 2101.60,2100.00"/>
    </edge>
    <edge id=":17_0" function="internal">
        <lane id=":17_0_0" index="0" speed="13.89" length="30.63" shape="3095.20,1115.63 3095.20,1085.00"/>
    </edge>
    <edge id=":17_1" function="internal">
        <lane id=":17_1_0" index="0" speed="9.87" length="5.06" shape="3098.40,1115.40 3097.69,1110.39"/>
    </edge>
    <edge id=":17_2" function="internal">
        <lane id=":17_2_0" index="0" speed="13.89" length="30.63" shape="3098.40,1115.40 3098.40,1084.77"/>
    </edge>
    <edge id=":17_3" function="internal">
        <lane id=":17_3_0" index="0" speed="10.88" length="5.11" shape="3098.40,1115.40 3099.11,1110.33"/>
    </edge>
    <edge id=":17_36" function="internal">
        <lane id=":17_36_0" index="0" speed="9.87" length="17.08" shape="3097.69,1110.39 3097.55,1109.36 3094.98,1105.05 3090.71,1102.46 3084.74,1101.60"/>
    </edge>
    <edge id=":17_37" function="internal">
        <lane id=":17_37_0" index="0" speed="10.88" length="22.02" shape="3099.11,1110.33 3099.44,1107.96 3102.56,1102.65 3107.77,1099.46 3115.05,1098.40"/>
    </edge>
    <edge id=":17_4" function="internal">
        <lane id=":17_4_0" index="0" speed="13.89" length="30.57" shape="3115.82,1109.31 3106.85,1108.62 3100.57,1108.36 3094.29,1108.58 3085.32,1109.30"/>
        <lane id=":17_4_1" index="1" speed="13.89" length="30.57" shape="3115.59,1106.08 3106.62,1105.39 3100.33,1105.15 3094.05,1105.39 3085.08,1106.11"/>
    </edge>
    <edge id=":17_6" function="internal">
        <lane id=":17_6_0" index="0" speed="9.05" length="5.24" shape="3115.36,1102.85 3110.13,1103.16"/>
    </edge>
    <edge id=":17_7" function="internal">
        <lane id=":17_7_0" index="0" speed="13.89" length="30.59" shape="3115.36,1102.85 3106.39,1102.17 3100.10,1101.94 3093.81,1102.19 3084.84,1102.91"/>
    </edge>
    <edge id=":17_8" function="internal">
        <lane id=":17_8_0" index="0" speed="11.83" length="9.25" shape="3115.36,1102.85 3107.91,1101.22 3106.55,1100.34"/>
    </edge>
    <edge id=":17_38" function="internal">
        <lane id=":17_38_0" index="0" speed="9.05" length="15.52" shape="3110.13,1103.16 3109.48,1103.20 3105.44,1105.35 3103.24,1109.31 3102.88,1115.06"/>
    </edge>
    <edge id=":17_39" function="internal">
        <lane id=":17_39_0" index="0" speed="11.83" length="19.01" shape="3106.55,1100.34 3102.39,1097.67 3098.80,1092.22 3097.15,1084.86"/>
    </edge>
    <edge id=":17_9" function="internal">
        <lane id=":17_9_0" index="0" speed="13.89" length="30.52" shape="3115.50,1104.80 3084.98,1104.80"/>
    </edge>
    <edge id=":17_10" function="internal">
        <lane id=":17_10_0" index="0" speed="9.83" length="5.05" shape="3115.28,1101.60 3110.27,1102.31"/>
    </edge>
    <edge id=":17_11" function="internal">
        <lane id=":17_11_0" index="0" speed="13.89" length="30.54" shape="3115.28,1101.60 3084.74,1101.60"/>
    </edge>
    <edge id=":17_12" function="internal">
        <lane id=":17_12_0" index="0" speed="10.89" length="5.03" shape="3115.28,1101.60 3110.30,1100.89"/>
    </edge>
    <edge id=":17_40" function="internal">
        <lane id=":17_40_0" index="0" speed="9.83" length="16.91" shape="3110.27,1102.31 3109.29,1102.45 3105.02,1104.99 3102.45,1109.23 3101.60,1115.16"/>
    </edge>
    <edge id=":17_41" function="internal">
        <lane id=":17_41_0" index="0" speed="10.89" length="22.15" shape="3110.30,1100.89 3107.89,1100.55 3102.62,1097.39 3099.45,1092.13 3098.40,1084.77"/>
    </edge>
    <edge id=":17_13" function="internal">
        <lane id=":17_13_0" index="0" speed="13.89" length="30.67" shape="3109.24,1083.98 3108.59,1092.97 3108.35,1099.29 3108.57,1105.61 3109.26,1114.59"/>
        <lane id=":17_13_1" index="1" speed="13.89" length="30.67" shape="3106.01,1084.21 3105.36,1093.20 3105.14,1099.52 3105.37,1105.84 3106.07,1114.83"/>
    </edge>
    <edge id=":17_15" function="internal">
        <lane id=":17_15_0" index="0" speed="9.11" length="5.33" shape="3102.78,1084.45 3103.11,1089.77"/>
    </edge>
    <edge id=":17_16" function="internal">
        <lane id=":17_16_0" index="0" speed="13.89" length="30.67" shape="3102.78,1084.45 3102.14,1093.44 3101.93,1099.76 3102.17,1106.08 3102.88,1115.06"/>
    </edge>
    <edge id=":17_17" function="internal">
        <lane id=":17_17_0" index="0" speed="11.86" length="9.32" shape="3102.78,1084.45 3101.18,1091.99 3100.32,1093.35"/>
    </edge>
    <edge id=":17_42" function="internal">
        <lane id=":17_42_0" index="0" speed="9.11" length="15.58" shape="3103.11,1089.77 3103.15,1090.42 3105.31,1094.54 3109.24,1096.81 3114.97,1097.21"/>
    </edge>
    <edge id=":17_43" function="internal">
        <lane id=":17_43_0" index="0" speed="11.86" length="19.11" shape="3100.32,1093.35 3097.65,1097.58 3092.20,1101.22 3084.84,1102.91"/>
    </edge>
    <edge id=":17_18" function="internal">
        <lane id=":17_18_0" index="0" speed="13.89" length="30.62" shape="3104.80,1084.30 3104.80,1114.92"/>
    </edge>
    <edge id=":17_19" function="internal">
        <lane id=":17_19_0" index="0" speed="9.85" length="5.16" shape="3101.60,1084.54 3102.31,1089.65"/>
    </edge>
    <edge id=":17_20" function="internal">
        <lane id=":17_20_0" index="0" speed="13.89" length="30.62" shape="3101.60,1084.54 3101.60,1115.16"/>
    </edge>
    <edge id=":17_21" function="internal">
        <lane id=":17_21_0" index="0" speed="10.92" length="5.07" shape="3101.60,1084.54 3100.89,1089.56"/>
    </edge>
    <edge id=":17_44" function="internal">
        <lane id=":17_44_0" index="0" speed="9.85" length="16.87" shape="3102.31,1089.65 3102.44,1090.60 3104.96,1094.93 3109.17,1097.53 3115.05,1098.40"/>
    </edge>
    <edge id=":17_45" function="internal">
        <lane id=":17_45_0" index="0" speed="10.92" length="22.29" shape="3100.89,1089.56 3100.55,1092.00 3097.38,1097.33 3092.11,1100.53 3084.74,1101.60"/>
    </edge>
    <edge id=":17_22" function="internal">
        <lane id=":17_22_0" index="0" speed="13.89" length="30.67" shape="3083.90,1090.54 3092.89,1091.31 3099.21,1091.62 3105.53,1091.47 3114.52,1090.83"/>
        <lane id=":17_22_1" index="1" speed="13.89" length="30.67" shape="3084.15,1093.78 3093.13,1094.54 3099.44,1094.84 3105.76,1094.67 3114.74,1094.02"/>
    </edge>
    <edge id=":17_24" function="internal">
        <lane id=":17_24_0" index="0" speed="9.08" length="5.29" shape="3084.39,1097.01 3089.68,1096.75"/>
    </edge>
    <edge id=":17_25" function="internal">
        <lane id=":17_25_0" index="0" speed="13.89" length="30.64" shape="3084.39,1097.01 3093.37,1097.77 3099.67,1098.05 3105.98,1097.86 3114.97,1097.21"/>
    </edge>
    <edge id=":17_26" function="internal">
        <lane id=":17_26_0" index="0" speed="11.93" length="9.60" shape="3084.39,1097.01 3091.95,1098.71 3093.51,1099.70"/>
    </edge>
    <edge id=":17_46" function="internal">
        <lane id=":17_46_0" index="0" speed="9.08" length="15.69" shape="3089.68,1096.75 3090.39,1096.71 3094.51,1094.59 3096.77,1090.64 3097.15,1084.86"/>
    </edge>
    <edge id=":17_47" function="internal">
        <lane id=":17_47_0" index="0" speed="11.93" length="18.88" shape="3093.51,1099.70 3097.56,1102.28 3101.20,1107.73 3102.88,1115.06"/>
    </edge>
    <edge id=":17_27" function="internal">
        <lane id=":17_27_0" index="0" speed="13.89" length="30.57" shape="3084.25,1095.20 3114.83,1095.20"/>
    </edge>
    <edge id=":17_28" function="internal">
        <lane id=":17_28_0" index="0" speed="9.88" length="5.11" shape="3084.49,1098.40 3089.56,1097.69"/>
    </edge>
    <edge id=":17_29" function="internal">
        <lane id=":17_29_0" index="0" speed="13.89" length="30.56" shape="3084.49,1098.40 3115.05,1098.40"/>
    </edge>
    <edge id=":17_30" function="internal">
        <lane id=":17_30_0" index="0" speed="10.92" length="5.11" shape="3084.49,1098.40 3089.56,1099.11"/>
    </edge>
    <edge id=":17_48" function="internal">
        <lane id=":17_48_0" index="0" speed="9.88" length="17.09" shape="3089.56,1097.69 3090.58,1097.55 3094.92,1094.99 3097.53,1090.73 3098.40,1084.77"/>
    </edge>
    <edge id=":17_49" function="internal">
        <lane id=":17_49_0" index="0" speed="10.92" length="22.20" shape="3089.56,1099.11 3091.98,1099.45 3097.32,1102.59 3100.53,1107.83 3101.60,1115.16"/>
    </edge>
    <edge id=":17_31" function="internal">
        <lane id=":17_31_0" index="0" speed="13.89" length="30.71" shape="3090.55,1115.98 3091.31,1106.99 3091.62,1100.66 3091.44,1094.32 3090.77,1085.33"/>
        <lane id=":17_31_1" index="1" speed="13.89" length="30.71" shape="3093.78,1115.74 3094.54,1106.75 3094.83,1100.42 3094.64,1094.09 3093.96,1085.10"/>
    </edge>
    <edge id=":17_33" function="internal">
        <lane id=":17_33_0" index="0" speed="9.04" length="5.26" shape="3097.01,1115.50 3096.75,1110.24"/>
    </edge>
    <edge id=":17_34" function="internal">
        <lane id=":17_34_0" index="0" speed="13.89" length="30.70" shape="3097.01,1115.50 3097.77,1106.51 3098.04,1100.18 3097.84,1093.85 3097.15,1084.86"/>
    </edge>
    <edge id=":17_35" function="internal">
        <lane id=":17_35_0" index="0" speed="11.86" length="9.52" shape="3097.01,1115.50 3098.70,1107.99 3099.69,1106.45"/>
    </edge>
    <edge id=":17_50" function="internal">
        <lane id=":17_50_0" index="0" speed="9.04" length="15.62" shape="3096.75,1110.24 3096.71,1109.56 3094.58,1105.48 3090.62,1103.27 3084.84,1102.91"/>
    </edge>
    <edge id=":17_51" function="internal">
        <lane id=":17_51_0" index="0" speed="11.86" length="18.74" shape="3099.69,1106.45 3102.26,1102.43 3107.68,1098.84 3114.97,1097.21"/>
    </edge>
    <edge id=":18_0" function="internal">
        <lane id=":18_0_0" index="0" speed="13.89" length="30.56" shape="4095.20,1115.58 4095.20,1085.02"/>
    </edge>
    <edge id=":18_1" function="internal">
        <lane id=":18_1_0" index="0" speed="9.87" length="5.02" shape="4098.40,1115.34 4097.69,1110.37"/>
    </edge>
    <edge id=":18_2" function="internal">
        <lane id=":18_2_0" index="0" speed="13.89" length="30.59" shape="4098.40,1115.34 4098.40,1084.75"/>
    </edge>
    <edge id=":18_3" function="internal">
        <lane id=":18_3_0" index="0" speed="10.88" length="5.09" shape="4098.40,1115.34 4099.11,1110.31"/>
    </edge>
    <edge id=":18_36" function="internal">
        <lane id=":18_36_0" index="0" speed="9.87" length="17.13" shape="4097.69,1110.37 4097.54,1109.33 4094.97,1105.04 4090.68,1102.46 4084.68,1101.60"/>
    </edge>
    <edge id=":18_37" function="internal">
        <lane id=":18_37_0" index="0" speed="10.88" length="22.04" shape="4099.11,1110.31 4099.44,1107.93 4102.57,1102.64 4107.79,1099.46 4115.09,1098.40"/>
    </edge>
    <edge id=":18_4" function="internal">
        <lane id=":18_4_0" index="0" speed="13.89" length="30.70" shape="4115.90,1109.25 4106.91,1108.59 4100.58,1108.36 4094.25,1108.58 4085.26,1109.29"/>
        <lane id=":18_4_1" index="1" speed="13.89" length="30.70" shape="4115.66,1106.02 4106.67,1105.37 4100.34,1105.15 4094.01,1105.38 4085.02,1106.10"/>
    </edge>
    <edge id=":18_6" function="internal">
        <lane id=":18_6_0" index="0" speed="9.07" length="5.28" shape="4115.42,1102.79 4110.15,1103.12"/>
    </edge>
    <edge id=":18_7" function="internal">
        <lane id=":18_7_0" index="0" speed="13.89" length="30.70" shape="4115.42,1102.79 4106.42,1102.14 4100.10,1101.94 4093.77,1102.19 4084.78,1102.91"/>
    </edge>
    <edge id=":18_8" function="internal">
        <lane id=":18_8_0" index="0" speed="11.88" length="9.28" shape="4115.42,1102.79 4107.94,1101.18 4106.56,1100.31"/>
    </edge>
    <edge id=":18_38" function="internal">
        <lane id=":18_38_0" index="0" speed="9.07" length="15.52" shape="4110.15,1103.12 4109.51,1103.16 4105.45,1105.32 4103.24,1109.27 4102.88,1115.01"/>
    </edge>
    <edge id=":18_39" function="internal">
        <lane id=":18_39_0" index="0" speed="11.88" length="19.07" shape="4106.56,1100.31 4102.37,1097.66 4098.72,1092.22 4096.99,1084.87"/>
    </edge>
    <edge id=":18_9" function="internal">
        <lane id=":18_9_0" index="0" speed="13.89" length="30.65" shape="4115.57,1104.80 4084.92,1104.80"/>
    </edge>
    <edge id=":18_10" function="internal">
        <lane id=":18_10_0" index="0" speed="9.83" length="5.09" shape="4115.33,1101.60 4110.29,1102.31"/>
    </edge>
    <edge id=":18_11" function="internal">
        <lane id=":18_11_0" index="0" speed="13.89" length="30.65" shape="4115.33,1101.60 4084.68,1101.60"/>
    </edge>
    <edge id=":18_12" function="internal">
        <lane id=":18_12_0" index="0" speed="10.90" length="5.04" shape="4115.33,1101.60 4110.34,1100.89"/>
    </edge>
    <edge id=":18_40" function="internal">
        <lane id=":18_40_0" index="0" speed="9.83" length="16.87" shape="4110.29,1102.31 4109.32,1102.44 4105.03,1104.98 4102.46,1109.20 4101.60,1115.11"/>
    </edge>
    <edge id=":18_41" function="internal">
        <lane id=":18_41_0" index="0" speed="10.90" length="22.20" shape="4110.34,1100.89 4107.92,1100.55 4102.63,1097.39 4099.46,1092.12 4098.40,1084.75"/>
    </edge>
    <edge id=":18_13" function="internal">
        <lane id=":18_13_0" index="0" speed="13.89" length="30.73" shape="4109.24,1083.85 4108.59,1092.86 4108.35,1099.20 4108.57,1105.54 4109.26,1114.54"/>
        <lane id=":18_13_1" index="1" speed="13.89" length="30.73" shape="4106.01,1084.12 4105.37,1093.12 4105.14,1099.45 4105.37,1105.78 4106.07,1114.78"/>
    </edge>
    <edge id=":18_15" function="internal">
        <lane id=":18_15_0" index="0" speed="9.11" length="5.33" shape="4102.78,1084.39 4103.11,1089.71"/>
    </edge>
    <edge id=":18_16" function="internal">
        <lane id=":18_16_0" index="0" speed="13.89" length="30.68" shape="4102.78,1084.39 4102.14,1093.38 4101.93,1099.71 4102.17,1106.03 4102.88,1115.01"/>
    </edge>
    <edge id=":18_17" function="internal">
        <lane id=":18_17_0" index="0" speed="11.87" length="9.47" shape="4102.78,1084.39 4101.17,1091.96 4100.25,1093.43"/>
    </edge>
    <edge id=":18_42" function="internal">
        <lane id=":18_42_0" index="0" speed="9.11" length="15.62" shape="4103.11,1089.71 4103.16,1090.38 4105.31,1094.51 4109.26,1096.76 4115.00,1097.14"/>
    </edge>
    <edge id=":18_43" function="internal">
        <lane id=":18_43_0" index="0" speed="11.87" length="19.05" shape="4100.25,1093.43 4097.64,1097.56 4092.17,1101.21 4084.78,1102.91"/>
    </edge>
    <edge id=":18_18" function="internal">
        <lane id=":18_18_0" index="0" speed="13.89" length="30.65" shape="4104.80,1084.22 4104.80,1114.87"/>
    </edge>
    <edge id=":18_19" function="internal">
        <lane id=":18_19_0" index="0" speed="9.86" length="5.16" shape="4101.60,1084.49 4102.31,1089.60"/>
    </edge>
    <edge id=":18_20" function="internal">
        <lane id=":18_20_0" index="0" speed="13.89" length="30.62" shape="4101.60,1084.49 4101.60,1115.11"/>
    </edge>
    <edge id=":18_21" function="internal">
        <lane id=":18_21_0" index="0" speed="10.94" length="5.07" shape="4101.60,1084.49 4100.89,1089.51"/>
    </edge>
    <edge id=":18_44" function="internal">
        <lane id=":18_44_0" index="0" speed="9.86" length="16.94" shape="4102.31,1089.60 4102.44,1090.57 4104.97,1094.92 4109.19,1097.53 4115.09,1098.40"/>
    </edge>
    <edge id=":18_45" function="internal">
        <lane id=":18_45_0" index="0" speed="10.94" length="22.38" shape="4100.89,1089.51 4100.54,1091.97 4097.37,1097.32 4092.08,1100.53 4084.68,1101.60"/>
    </edge>
    <edge id=":18_22" function="internal">
        <lane id=":18_22_0" index="0" speed="13.89" length="30.73" shape="4083.85,1090.68 4092.85,1091.37 4099.19,1091.64 4105.53,1091.44 4114.53,1090.76"/>
        <lane id=":18_22_1" index="1" speed="13.89" length="30.73" shape="4084.10,1093.91 4093.09,1094.60 4099.43,1094.85 4105.77,1094.64 4114.76,1093.95"/>
    </edge>
    <edge id=":18_24" function="internal">
        <lane id=":18_24_0" index="0" speed="9.07" length="5.30" shape="4084.34,1097.14 4089.63,1096.83"/>
    </edge>
    <edge id=":18_25" function="internal">
        <lane id=":18_25_0" index="0" speed="13.89" length="30.72" shape="4084.34,1097.14 4093.34,1097.82 4099.67,1098.06 4106.01,1097.84 4115.00,1097.14"/>
    </edge>
    <edge id=":18_26" function="internal">
        <lane id=":18_26_0" index="0" speed="11.88" length="9.50" shape="4084.34,1097.14 4091.93,1098.77 4093.41,1099.70"/>
    </edge>
    <edge id=":18_46" function="internal">
        <lane id=":18_46_0" index="0" speed="9.07" length="15.69" shape="4089.63,1096.83 4090.34,1096.79 4094.45,1094.63 4096.66,1090.66 4096.99,1084.87"/>
    </edge>
    <edge id=":18_47" function="internal">
        <lane id=":18_47_0" index="0" speed="11.88" length="18.91" shape="4093.41,1099.70 4097.55,1102.29 4101.20,1107.71 4102.88,1115.01"/>
    </edge>
    <edge id=":18_27" function="internal">
        <lane id=":18_27_0" index="0" speed="13.89" length="30.66" shape="4084.19,1095.20 4114.86,1095.20"/>
    </edge>
    <edge id=":18_28" function="internal">
        <lane id=":18_28_0" index="0" speed="9.90" length="5.13" shape="4084.44,1098.40 4089.51,1097.69"/>
    </edge>
    <edge id=":18_29" function="internal">
        <lane id=":18_29_0" index="0" speed="13.89" length="30.66" shape="4084.44,1098.40 4115.09,1098.40"/>
    </edge>
    <edge id=":18_30" function="internal">
        <lane id=":18_30_0" index="0" speed="10.92" length="5.14" shape="4084.44,1098.40 4089.53,1099.11"/>
    </edge>
    <edge id=":18_48" function="internal">
        <lane id=":18_48_0" index="0" speed="9.90" length="17.14" shape="4089.51,1097.69 4090.55,1097.55 4094.91,1094.99 4097.53,1090.72 4098.40,1084.75"/>
    </edge>
    <edge id=":18_49" function="internal">
        <lane id=":18_49_0" index="0" speed="10.92" length="22.17" shape="4089.53,1099.11 4091.95,1099.44 4097.31,1102.58 4100.53,1107.80 4101.60,1115.11"/>
    </edge>
    <edge id=":18_31" function="internal">
        <lane id=":18_31_0" index="0" speed="13.89" length="30.61" shape="4090.47,1115.93 4091.28,1106.96 4091.58,1100.67 4091.37,1094.37 4090.61,1085.40"/>
        <lane id=":18_31_1" index="1" speed="13.89" length="30.63" shape="4093.70,1115.69 4094.51,1106.72 4094.80,1100.41 4094.57,1094.11 4093.80,1085.14"/>
    </edge>
    <edge id=":18_33" function="internal">
        <lane id=":18_33_0" index="0" speed="9.03" length="20.86" shape="4096.94,1115.45 4096.66,1109.53 4094.54,1105.47 4090.58,1103.26 4084.78,1102.91"/>
    </edge>
    <edge id=":18_34" function="internal">
        <lane id=":18_34_0" index="0" speed="13.89" length="30.66" shape="4096.94,1115.45 4097.74,1106.47 4098.01,1100.16 4097.76,1093.85 4096.99,1084.87"/>
    </edge>
    <edge id=":18_35" function="internal">
        <lane id=":18_35_0" index="0" speed="11.92" length="9.57" shape="4096.94,1115.45 4098.67,1107.96 4099.69,1106.38"/>
    </edge>
    <edge id=":18_50" function="internal">
        <lane id=":18_50_0" index="0" speed="11.92" length="18.75" shape="4099.69,1106.38 4102.25,1102.41 4107.70,1098.80 4115.00,1097.14"/>
    </edge>
    <edge id=":19_0" function="internal">
        <lane id=":19_0_0" index="0" speed="13.89" length="30.69" shape="5095.20,1115.67 5095.20,1084.98"/>
    </edge>
    <edge id=":19_1" function="internal">
        <lane id=":19_1_0" index="0" speed="9.88" length="5.07" shape="5098.40,1115.44 5097.69,1110.42"/>
    </edge>
    <edge id=":19_2" function="internal">
        <lane id=":19_2_0" index="0" speed="13.89" length="30.70" shape="5098.40,1115.44 5098.40,1084.74"/>
    </edge>
    <edge id=":19_3" function="internal">
        <lane id=":19_3_0" index="0" speed="10.88" length="5.14" shape="5098.40,1115.44 5099.11,1110.35"/>
    </edge>
    <edge id=":19_36" function="internal">
        <lane id=":19_36_0" index="0" speed="9.88" length="17.11" shape="5097.69,1110.42 5097.55,1109.39 5094.98,1105.06 5090.71,1102.47 5084.73,1101.60"/>
    </edge>
    <edge id=":19_37" function="internal">
        <lane id=":19_37_0" index="0" speed="10.88" length="21.98" shape="5099.11,1110.35 5099.44,1107.99 5102.55,1102.66 5107.73,1099.47 5114.99,1098.40"/>
    </edge>
    <edge id=":19_4" function="internal">
        <lane id=":19_4_0" index="0" speed="13.89" length="30.41" shape="5115.69,1109.43 5106.75,1108.67 5100.52,1108.39 5094.30,1108.62 5085.36,1109.38"/>
        <lane id=":19_4_1" index="1" speed="13.89" length="30.46" shape="5115.49,1106.20 5106.54,1105.44 5100.29,1105.18 5094.05,1105.43 5085.10,1106.19"/>
    </edge>
    <edge id=":19_6" function="internal">
        <lane id=":19_6_0" index="0" speed="9.03" length="20.72" shape="5115.28,1102.97 5109.43,1103.28 5105.40,1105.40 5103.20,1109.36 5102.82,1115.13"/>
    </edge>
    <edge id=":19_7" function="internal">
        <lane id=":19_7_0" index="0" speed="13.89" length="30.52" shape="5115.28,1102.97 5106.32,1102.22 5100.06,1101.97 5093.80,1102.23 5084.84,1103.00"/>
    </edge>
    <edge id=":19_8" function="internal">
        <lane id=":19_8_0" index="0" speed="11.90" length="9.24" shape="5115.28,1102.97 5107.86,1101.28 5106.50,1100.39"/>
    </edge>
    <edge id=":19_38" function="internal">
        <lane id=":19_38_0" index="0" speed="11.90" length="19.06" shape="5106.50,1100.39 5102.36,1097.69 5098.77,1092.21 5097.10,1084.84"/>
    </edge>
    <edge id=":19_9" function="internal">
        <lane id=":19_9_0" index="0" speed="13.89" length="30.41" shape="5115.40,1104.80 5084.99,1104.80"/>
    </edge>
    <edge id=":19_10" function="internal">
        <lane id=":19_10_0" index="0" speed="9.83" length="5.01" shape="5115.20,1101.60 5110.24,1102.31"/>
    </edge>
    <edge id=":19_11" function="internal">
        <lane id=":19_11_0" index="0" speed="13.89" length="30.47" shape="5115.20,1101.60 5084.73,1101.60"/>
    </edge>
    <edge id=":19_12" function="internal">
        <lane id=":19_12_0" index="0" speed="10.88" length="5.00" shape="5115.20,1101.60 5110.25,1100.89"/>
    </edge>
    <edge id=":19_39" function="internal">
        <lane id=":19_39_0" index="0" speed="9.83" length="16.93" shape="5110.24,1102.31 5109.25,1102.45 5105.00,1105.00 5102.45,1109.26 5101.60,1115.21"/>
    </edge>
    <edge id=":19_40" function="internal">
        <lane id=":19_40_0" index="0" speed="10.88" length="22.15" shape="5110.25,1100.89 5107.85,1100.55 5102.60,1097.38 5099.45,1092.12 5098.40,1084.74"/>
    </edge>
    <edge id=":19_13" function="internal">
        <lane id=":19_13_0" index="0" speed="13.89" length="30.81" shape="5109.26,1083.91 5108.60,1092.92 5108.35,1099.29 5108.55,1105.66 5109.21,1114.67"/>
        <lane id=":19_13_1" index="1" speed="13.89" length="30.81" shape="5106.03,1084.16 5105.38,1093.17 5105.14,1099.53 5105.35,1105.89 5106.02,1114.90"/>
    </edge>
    <edge id=":19_15" function="internal">
        <lane id=":19_15_0" index="0" speed="9.13" length="5.38" shape="5102.81,1084.40 5103.12,1089.78"/>
    </edge>
    <edge id=":19_16" function="internal">
        <lane id=":19_16_0" index="0" speed="13.89" length="30.78" shape="5102.81,1084.40 5102.15,1093.41 5101.93,1099.77 5102.15,1106.12 5102.82,1115.13"/>
    </edge>
    <edge id=":19_17" function="internal">
        <lane id=":19_17_0" index="0" speed="11.91" length="9.41" shape="5102.81,1084.40 5101.19,1091.97 5100.30,1093.39"/>
    </edge>
    <edge id=":19_41" function="internal">
        <lane id=":19_41_0" index="0" speed="9.13" length="15.57" shape="5103.12,1089.78 5103.16,1090.41 5105.30,1094.56 5109.22,1096.86 5114.92,1097.31"/>
    </edge>
    <edge id=":19_42" function="internal">
        <lane id=":19_42_0" index="0" speed="11.91" length="19.10" shape="5100.30,1093.39 5097.66,1097.59 5092.21,1101.27 5084.84,1103.00"/>
    </edge>
    <edge id=":19_18" function="internal">
        <lane id=":19_18_0" index="0" speed="13.89" length="30.74" shape="5104.80,1084.25 5104.80,1114.99"/>
    </edge>
    <edge id=":19_19" function="internal">
        <lane id=":19_19_0" index="0" speed="9.84" length="5.20" shape="5101.60,1084.49 5102.31,1089.64"/>
    </edge>
    <edge id=":19_20" function="internal">
        <lane id=":19_20_0" index="0" speed="13.89" length="30.72" shape="5101.60,1084.49 5101.60,1115.21"/>
    </edge>
    <edge id=":19_21" function="internal">
        <lane id=":19_21_0" index="0" speed="10.93" length="5.08" shape="5101.60,1084.49 5100.89,1089.52"/>
    </edge>
    <edge id=":19_43" function="internal">
        <lane id=":19_43_0" index="0" speed="9.84" length="16.82" shape="5102.31,1089.64 5102.44,1090.58 5104.95,1094.92 5109.13,1097.53 5114.99,1098.40"/>
    </edge>
    <edge id=":19_44" function="internal">