<?xml version="1.0" encoding="UTF-8"?>

<!-- generated on 2025-11-23 13:44:16 by Eclipse SUMO netconvert Version 1.24.0
<netconvertConfiguration xmlns:xsi="http://www.w3.org/2001/XMLSchema-instance" xsi:noNamespaceSchemaLocation="http://sumo.dlr.de/xsd/netconvertConfiguration.xsd">

    <input>
        <node-files value="common.nod.xml"/>
        <edge-files value="common.edg.xml"/>
        <connection-files value="common.con.xml"/>
    </input>

    <output>
        <output-file value="common.net.xml"/>
    </output>

</netconvertConfiguration>
-->

<net version="1.20" junctionCornerDetail="5" limitTurnSpeed="5.50" xmlns:xsi="http://www.w3.org/2001/XMLSchema-instance" xsi:noNamespaceSchemaLocation="http://sumo.dlr.de/xsd/net_file.xsd">

    <location netOffset="1100.00,1100.00" convBoundary="0.00,0.00,6200.00,2200.00" origBoundary="-1100.00,-1100.00,5100.00,1100.00" projParameter="!"/>

    <edge id=":1_0" function="internal">
        <lane id=":1_0_0" index="0" speed="13.89" length="0.10" shape="100.00,1101.60 100.00,1101.60"/>
    </edge>
    <edge id=":1_1" function="internal">
        <lane id=":1_1_0" index="0" speed="13.89" length="0.10" shape="100.00,1098.40 100.00,1098.40"/>
    </edge>
    <edge id=":10_0" function="internal">
        <lane id=":10_0_0" index="0" speed="13.89" length="8.40" shape="1095.20,999.00 1095.70,996.54 1096.80,995.00 1097.90,993.46 1098.40,991.00"/>
        <lane id=":10_0_1" index="1" speed="13.89" length="8.40" shape="1098.40,999.00 1098.40,991.00"/>
    </edge>
    <edge id=":10_2" function="internal">
        <lane id=":10_2_0" index="0" speed="13.89" length="8.40" shape="1101.60,991.00 1102.10,993.46 1103.20,995.00 1104.30,996.54 1104.80,999.00"/>
        <lane id=":10_2_1" index="1" speed="13.89" length="8.40" shape="1101.60,991.00 1101.60,999.00"/>
    </edge>
    <edge id=":11_0" function="internal">
        <lane id=":11_0_0" index="0" speed="13.89" length="8.40" shape="1098.40,1209.00 1097.90,1206.54 1096.80,1205.00 1095.70,1203.46 1095.20,1201.00"/>
        <lane id=":11_0_1" index="1" speed="13.89" length="8.40" shape="1098.40,1209.00 1098.40,1201.00"/>
    </edge>
    <edge id=":11_2" function="internal">
        <lane id=":11_2_0" index="0" speed="13.89" length="8.40" shape="1104.80,1201.00 1104.30,1203.46 1103.20,1205.00 1102.10,1206.54 1101.60,1209.00"/>
        <lane id=":11_2_1" index="1" speed="13.89" length="8.40" shape="1101.60,1201.00 1101.60,1209.00"/>
    </edge>
    <edge id=":12_0" function="internal">
        <lane id=":12_0_0" index="0" speed="13.89" length="0.10" shape="1098.40,2100.00 1098.40,2100.00"/>
    </edge>
    <edge id=":12_1" function="internal">
        <lane id=":12_1_0" index="0" speed="13.89" length="0.10" shape="1101.60,2100.00 1101.60,2100.00"/>
    </edge>
    <edge id=":13_0" function="internal">
        <lane id=":13_0_0" index="0" speed="13.89" length="0.10" shape="2098.40,100.00 2098.40,100.00"/>
    </edge>
    <edge id=":13_1" function="internal">
        <lane id=":13_1_0" index="0" speed="13.89" length="0.10" shape="2101.60,100.00 2101.60,100.00"/>
    </edge>
    <edge id=":14_0" function="internal">
        <lane id=":14_0_0" index="0" speed="13.89" length="8.40" shape="2095.20,999.00 2095.70,996.54 2096.80,995.00 2097.90,993.46 2098.40,991.00"/>
        <lane id=":14_0_1" index="1" speed="13.89" length="8.40" shape="2098.40,999.00 2098.40,991.00"/>
    </edge>
    <edge id=":14_2" function="internal">
        <lane id=":14_2_0" index="0" speed="13.89" length="8.40" shape="2101.60,991.00 2102.10,993.46 2103.20,995.00 2104.30,996.54 2104.80,999.00"/>
        <lane id=":14_2_1" index="1" speed="13.89" length="8.40" shape="2101.60,991.00 2101.60,999.00"/>
    </edge>
    <edge id=":15_0" function="internal">
        <lane id=":15_0_0" index="0" speed="13.89" length="8.40" shape="2098.40,1209.00 2097.90,1206.54 2096.80,1205.00 2095.70,1203.46 2095.20,1201.00"/>
        <lane id=":15_0_1" index="1" speed="13.89" length="8.40" shape="2098.40,1209.00 2098.40,1201.00"/>
    </edge>
    <edge id=":15_2" function="internal">
        <lane id=":15_2_0" index="0" speed="13.89" length="8.40" shape="2104.80,1201.00 2104.30,1203.46 2103.20,1205.00 2102.10,1206.54 2101.60,1209.00"/>
        <lane id=":15_2_1" index="1" speed="13.89" length="8.40" shape="2101.60,1201.00 2101.60,1209.00"/>
    </edge>
    <edge id=":16_0" function="internal">
        <lane id=":16_0_0" index="0" speed="13.89" length="0.10" shape="2098.40,2100.00 2098.40,2100.00"/>
    </edge>
    <edge id=":16_1" function="internal">
        <lane id=":16_1_0" index="0" speed="13.89" length="0.10" shape="2101.60,2100.00 2101.60,2100.00"/>
    </edge>
    <edge id=":17_0" function="internal">
        <lane id=":17_0_0" index="0" speed="13.89" length="20.80" shape="3095.20,1110.40 3095.20,1089.60"/>
    </edge>
    <edge id=":17_1" function="internal">
        <lane id=":17_1_0" index="0" speed="8.00" length="4.07" shape="3098.40,1110.40 3097.85,1106.55 3097.76,1106.40"/>
    </edge>
    <edge id=":17_2" function="internal">
        <lane id=":17_2_0" index="0" speed="13.89" length="20.80" shape="3098.40,1110.40 3098.40,1089.60"/>
    </edge>
    <edge id=":17_3" function="internal">
        <lane id=":17_3_0" index="0" speed="9.26" length="5.01" shape="3098.40,1110.40 3099.11,1105.44"/>
    </edge>
    <edge id=":17_16" function="internal">
        <lane id=":17_16_0" index="0" speed="8.00" length="10.13" shape="3097.76,1106.40 3096.20,1103.80 3093.45,1102.15 3089.60,1101.60"/>
    </edge>
    <edge id=":17_17" function="internal">
        <lane id=":17_17_0" index="0" speed="9.26" length="14.34" shape="3099.11,1105.44 3099.15,1105.15 3101.40,1101.40 3105.15,1099.15 3110.40,1098.40"/>
    </edge>
    <edge id=":17_4" function="internal">
        <lane id=":17_4_0" index="0" speed="13.89" length="20.80" shape="3110.40,1104.80 3089.60,1104.80"/>
    </edge>
    <edge id=":17_5" function="internal">
        <lane id=":17_5_0" index="0" speed="8.00" length="4.07" shape="3110.40,1101.60 3106.55,1102.15 3106.40,1102.24"/>
    </edge>
    <edge id=":17_6" function="internal">
        <lane id=":17_6_0" index="0" speed="13.89" length="20.80" shape="3110.40,1101.60 3089.60,1101.60"/>
    </edge>
    <edge id=":17_7" function="internal">
        <lane id=":17_7_0" index="0" speed="9.26" length="5.01" shape="3110.40,1101.60 3105.44,1100.89"/>
    </edge>
    <edge id=":17_18" function="internal">
        <lane id=":17_18_0" index="0" speed="8.00" length="10.13" shape="3106.40,1102.24 3103.80,1103.80 3102.15,1106.55 3101.60,1110.40"/>
    </edge>
    <edge id=":17_19" function="internal">
        <lane id=":17_19_0" index="0" speed="9.26" length="14.34" shape="3105.44,1100.89 3105.15,1100.85 3101.40,1098.60 3099.15,1094.85 3098.40,1089.60"/>
    </edge>
    <edge id=":17_8" function="internal">
        <lane id=":17_8_0" index="0" speed="13.89" length="20.80" shape="3104.80,1089.60 3104.80,1110.40"/>
    </edge>
    <edge id=":17_9" function="internal">
        <lane id=":17_9_0" index="0" speed="8.00" length="4.07" shape="3101.60,1089.60 3102.15,1093.45 3102.24,1093.60"/>
    </edge>
    <edge id=":17_10" function="internal">
        <lane id=":17_10_0" index="0" speed="13.89" length="20.80" shape="3101.60,1089.60 3101.60,1110.40"/>
    </edge>
    <edge id=":17_11" function="internal">
        <lane id=":17_11_0" index="0" speed="9.26" length="5.01" shape="3101.60,1089.60 3100.89,1094.56"/>
    </edge>
    <edge id=":17_20" function="internal">
        <lane id=":17_20_0" index="0" speed="8.00" length="10.13" shape="3102.24,1093.60 3103.80,1096.20 3106.55,1097.85 3110.40,1098.40"/>
    </edge>
    <edge id=":17_21" function="internal">
        <lane id=":17_21_0" index="0" speed="9.26" length="14.34" shape="3100.89,1094.56 3100.85,1094.85 3098.60,1098.60 3094.85,1100.85 3089.60,1101.60"/>
    </edge>
    <edge id=":17_12" function="internal">
        <lane id=":17_12_0" index="0" speed="13.89" length="20.80" shape="3089.60,1095.20 3110.40,1095.20"/>
    </edge>
    <edge id=":17_13" function="internal">
        <lane id=":17_13_0" index="0" speed="8.00" length="4.07" shape="3089.60,1098.40 3093.45,1097.85 3093.60,1097.76"/>
    </edge>
    <edge id=":17_14" function="internal">
        <lane id=":17_14_0" index="0" speed="13.89" length="20.80" shape="3089.60,1098.40 3110.40,1098.40"/>
    </edge>
    <edge id=":17_15" function="internal">
        <lane id=":17_15_0" index="0" speed="9.26" length="5.01" shape="3089.60,1098.40 3094.56,1099.11"/>
    </edge>
    <edge id=":17_22" function="internal">
        <lane id=":17_22_0" index="0" speed="8.00" length="10.13" shape="3093.60,1097.76 3096.20,1096.20 3097.85,1093.45 3098.40,1089.60"/>
    </edge>
    <edge id=":17_23" function="internal">
        <lane id=":17_23_0" index="0" speed="9.26" length="14.34" shape="3094.56,1099.11 3094.85,1099.15 3098.60,1101.40 3100.85,1105.15 3101.60,1110.40"/>
    </edge>
    <edge id=":18_0" function="internal">
        <lane id=":18_0_0" index="0" speed="13.89" length="20.80" shape="4095.20,1110.40 4095.20,1089.60"/>
    </edge>
    <edge id=":18_1" function="internal">
        <lane id=":18_1_0" index="0" speed="8.00" length="4.07" shape="4098.40,1110.40 4097.85,1106.55 4097.76,1106.40"/>
    </edge>
    <edge id=":18_2" function="internal">
        <lane id=":18_2_0" index="0" speed="13.89" length="20.80" shape="4098.40,1110.40 4098.40,1089.60"/>
    </edge>
    <edge id=":18_3" function="internal">
        <lane id=":18_3_0" index="0" speed="9.26" length="5.01" shape="4098.40,1110.40 4099.11,1105.44"/>
    </edge>
    <edge id=":18_16" function="internal">
        <lane id=":18_16_0" index="0" speed="8.00" length="10.13" shape="4097.76,1106.40 4096.20,1103.80 4093.45,1102.15 4089.60,1101.60"/>
    </edge>
    <edge id=":18_17" function="internal">
        <lane id=":18_17_0" index="0" speed="9.26" length="14.34" shape="4099.11,1105.44 4099.15,1105.15 4101.40,1101.40 4105.15,1099.15 4110.40,1098.40"/>
    </edge>
    <edge id=":18_4" function="internal">
        <lane id=":18_4_0" index="0" speed="13.89" length="20.80" shape="4110.40,1104.80 4089.60,1104.80"/>
    </edge>
    <edge id=":18_5" function="internal">
        <lane id=":18_5_0" index="0" speed="8.00" length="4.07" shape="4110.40,1101.60 4106.55,1102.15 4106.40,1102.24"/>
    </edge>
    <edge id=":18_6" function="internal">
        <lane id=":18_6_0" index="0" speed="13.89" length="20.80" shape="4110.40,1101.60 4089.60,1101.60"/>
    </edge>
    <edge id=":18_7" function="internal">
        <lane id=":18_7_0" index="0" speed="9.26" length="5.01" shape="4110.40,1101.60 4105.44,1100.89"/>
    </edge>
    <edge id=":18_18" function="internal">
        <lane id=":18_18_0" index="0" speed="8.00" length="10.13" shape="4106.40,1102.24 4103.80,1103.80 4102.15,1106.55 4101.60,1110.40"/>
    </edge>
    <edge id=":18_19" function="internal">
        <lane id=":18_19_0" index="0" speed="9.26" length="14.34" shape="4105.44,1100.89 4105.15,1100.85 4101.40,1098.60 4099.15,1094.85 4098.40,1089.60"/>
    </edge>
    <edge id=":18_8" function="internal">
        <lane id=":18_8_0" index="0" speed="13.89" length="20.80" shape="4104.80,1089.60 4104.80,1110.40"/>
    </edge>
    <edge id=":18_9" function="internal">
        <lane id=":18_9_0" index="0" speed="8.00" length="4.07" shape="4101.60,1089.60 4102.15,1093.45 4102.24,1093.60"/>
    </edge>
    <edge id=":18_10" function="internal">
        <lane id=":18_10_0" index="0" speed="13.89" length="20.80" shape="4101.60,1089.60 4101.60,1110.40"/>
    </edge>
    <edge id=":18_11" function="internal">
        <lane id=":18_11_0" index="0" speed="9.26" length="5.01" shape="4101.60,1089.60 4100.89,1094.56"/>
    </edge>
    <edge id=":18_20" function="internal">
        <lane id=":18_20_0" index="0" speed="8.00" length="10.13" shape="4102.24,1093.60 4103.80,1096.20 4106.55,1097.85 4110.40,1098.40"/>
    </edge>
    <edge id=":18_21" function="internal">
        <lane id=":18_21_0" index="0" speed="9.26" length="14.34" shape="4100.89,1094.56 4100.85,1094.85 4098.60,1098.60 4094.85,1100.85 4089.60,1101.60"/>
    </edge>
    <edge id=":18_12" function="internal">
        <lane id=":18_12_0" index="0" speed="13.89" length="20.80" shape="4089.60,1095.20 4110.40,1095.20"/>
    </edge>
    <edge id=":18_13" function="internal">
        <lane id=":18_13_0" index="0" speed="8.00" length="4.07" shape="4089.60,1098.40 4093.45,1097.85 4093.60,1097.76"/>
    </edge>
    <edge id=":18_14" function="internal">
        <lane id=":18_14_0" index="0" speed="13.89" length="20.80" shape="4089.60,1098.40 4110.40,1098.40"/>
    </edge>
    <edge id=":18_15" function="internal">
        <lane id=":18_15_0" index="0" speed="9.26" length="5.01" shape="4089.60,1098.40 4094.56,1099.11"/>
    </edge>
    <edge id=":18_22" function="internal">
        <lane id=":18_22_0" index="0" speed="8.00" length="10.13" shape="4093.60,1097.76 4096.20,1096.20 4097.85,1093.45 4098.40,1089.60"/>
    </edge>
    <edge id=":18_23" function="internal">
        <lane id=":18_23_0" index="0" speed="9.26" length="14.34" shape="4094.56,1099.11 4094.85,1099.15 4098.60,1101.40 4100.85,1105.15 4101.60,1110.40"/>
    </edge>
    <edge id=":19_0" function="internal">
        <lane id=":19_0_0" index="0" speed="13.89" length="20.80" shape="5095.20,1110.40 5095.20,1089.60"/>
    </edge>
    <edge id=":19_1" function="internal">
        <lane id=":19_1_0" index="0" speed="8.00" length="4.07" shape="5098.40,1110.40 5097.85,1106.55 5097.76,1106.40"/>
    </edge>
    <edge id=":19_2" function="internal">
        <lane id=":19_2_0" index="0" speed="13.89" length="20.80" shape="5098.40,1110.40 5098.40,1089.60"/>
    </edge>
    <edge id=":19_3" function="internal">
        <lane id=":19_3_0" index="0" speed="9.26" length="5.01" shape="5098.40,1110.40 5099.11,1105.44"/>
    </edge>
    <edge id=":19_16" function="internal">
        <lane id=":19_16_0" index="0" speed="8.00" length="10.13" shape="5097.76,1106.40 5096.20,1103.80 5093.45,1102.15 5089.60,1101.60"/>
    </edge>
    <edge id=":19_17" function="internal">
        <lane id=":19_17_0" index="0" speed="9.26" length="14.34" shape="5099.11,1105.44 5099.15,1105.15 5101.40,1101.40 5105.15,1099.15 5110.40,1098.40"/>
    </edge>
    <edge id=":19_4" function="internal">
        <lane id=":19_4_0" index="0" speed="13.89" length="20.80" shape="5110.40,1104.80 5089.60,1104.80"/>
    </edge>
    <edge id=":19_5" function="internal">
        <lane id=":19_5_0" index="0" speed="8.00" length="4.07" shape="5110.40,1101.60 5106.55,1102.15 5106.40,1102.24"/>
    </edge>
    <edge id=":19_6" function="internal">
        <lane id=":19_6_0" index="0" speed="13.89" length="20.80" shape="5110.40,1101.60 5089.60,1101.60"/>
    </edge>
    <edge id=":19_7" function="internal">
        <lane id=":19_7_0" index="0" speed="9.26" length="5.01" shape="5110.40,1101.60 5105.44,1100.89"/>
    </edge>
    <edge id=":19_18" function="internal">
        <lane id=":19_18_0" index="0" speed="8.00" length="10.13" shape="5106.40,1102.24 5103.80,1103.80 5102.15,1106.55 5101.60,1110.40"/>
    </edge>
    <edge id=":19_19" function="internal">
        <lane id=":19_19_0" index="0" speed="9.26" length="14.34" shape="5105.44,1100.89 5105.15,1100.85 5101.40,1098.60 5099.15,1094.85 5098.40,1089.60"/>
    </edge>
    <edge id=":19_8" function="internal">
        <lane id=":19_8_0" index="0" speed="13.89" length="20.80" shape="5104.80,1089.60 5104.80,1110.40"/>
    </edge>
    <edge id=":19_9" function="internal">
        <lane id=":19_9_0" index="0" speed="8.00" length="4.07" shape="5101.60,1089.60 5102.15,1093.45 5102.24,1093.60"/>
    </edge>
    <edge id=":19_10" function="internal">
        <lane id=":19_10_0" index="0" speed="13.89" length="20.80" shape="5101.60,1089.60 5101.60,1110.40"/>
    </edge>
    <edge id=":19_11" function="internal">
        <lane id=":19_11_0" index="0" speed="9.26" length="5.01" shape="5101.60,1089.60 5100.89,1094.56"/>
    </edge>
    <edge id=":19_20" function="internal">
        <lane id=":19_20_0" index="0" speed="8.00" length="10.13" shape="5102.24,1093.60 5103.80,1096.20 5106.55,1097.85 5110.40,1098.40"/>
    </edge>
    <edge id=":19_21" function="internal">
        <lane id=":19_21_0" index="0" speed="9.26" length="14.34" shape="5100.89,1094.56 5100.85,1094.85 5098.60,1098.60 5094.85,1100.85 5089.60,1101.60"/>
    </edge>
    <edge id=":19_12" function="internal">
        <lane id=":19_12_0" index="0" speed="13.89" length="20.80" shape="5089.60,1095.20 5110.40,1095.20"/>
    </edge>
    <edge id=":19_13" function="internal">
        <lane id=":19_13_0" index="0" speed="8.00" length="4.07" shape="5089.60,1098.40 5093.45,1097.85 5093.60,1097.76"/>
    </edge>
    <edge id=":19_14" function="internal">
        <lane id=":19_14_0" index="0" speed="13.89" length="20.80" shape="5089.60,1098.40 5110.40,1098.40"/>
    </edge>
    <edge id=":19_15" function="internal">
        <lane id=":19_15_0" index="0" speed="9.26" length="5.01" shape="5089.60,1098.40 5094.56,1099.11"/>
    </edge>
    <edge id=":19_22" function="internal">
        <lane id=":19_22_0" index="0" speed="8.00" length="10.13" shape="5093.60,1097.76 5096.20,1096.20 5097.85,1093.45 5098.40,1089.60"/>
    </edge>
    <edge id=":19_23" function="internal">
        <lane id=":19_23_0" index="0" speed="9.26" length="14.34" shape="5094.56,1099.11 5094.85,1099.15 5098.60,1101.40 5100.85,1105.15 5101.60,1110.40"/>
    </edge>
    <edge id=":2_0" function="internal">
        <lane id=":2_0_0" index="0" speed="13.89" length="8.40" shape="999.00,1104.80 996.54,1104.30 995.00,1103.20 993.46,1102.10 991.00,1101.60"/>
        <lane id=":2_0_1" index="1" speed="13.89" length="8.40" shape="999.00,1101.60 991.00,1101.60"/>
    </edge>
    <edge id=":2_2" function="internal">
        <lane id=":2_2_0" index="0" speed="13.89" length="8.40" shape="991.00,1098.40 993.46,1097.90 995.00,1096.80 996.54,1095.70 999.00,1095.20"/>
        <lane id=":2_2_1" index="1" speed="13.89" length="8.40" shape="991.00,1098.40 999.00,1098.40"/>
    </edge>
    <edge id=":20_0" function="internal">
        <lane id=":20_0_0" index="0" speed="13.89" length="8.40" shape="2999.00,1104.80 2996.54,1104.30 2995.00,1103.20 2993.46,1102.10 2991.00,1101.60"/>
        <lane id=":20_0_1" index="1" speed="13.89" length="8.40" shape="2999.00,1101.60 2991.00,1101.60"/>
    </edge>
    <edge id=":20_2" function="internal">
        <lane id=":20_2_0" index="0" speed="13.89" length="8.40" shape="2991.00,1098.40 2993.46,1097.90 2995.00,1096.80 2996.54,1095.70 2999.00,1095.20"/>
        <lane id=":20_2_1" index="1" speed="13.89" length="8.40" shape="2991.00,1098.40 2999.00,1098.40"/>
    </edge>
    <edge id=":21_0" function="internal">
        <lane id=":21_0_0" index="0" speed="13.89" length="8.40" shape="3209.00,1101.60 3206.54,1102.10 3205.00,1103.20 3203.46,1104.30 3201.00,1104.80"/>
        <lane id=":21_0_1" index="1" speed="13.89" length="8.40" shape="3209.00,1101.60 3201.00,1101.60"/>
    </edge>
    <edge id=":21_2" function="internal">
        <lane id=":21_2_0" index="0" speed="13.89" length="8.40" shape="3201.00,1095.20 3203.46,1095.70 3205.00,1096.80 3206.54,1097.90 3209.00,1098.40"/>
        <lane id=":21_2_1" index="1" speed="13.89" length="8.40" shape="3201.00,1098.40 3209.00,1098.40"/>
    </edge>
    <edge id=":22_0" function="internal">
        <lane id=":22_0_0" index="0" speed="13.89" length="8.40" shape="3999.00,1104.80 3996.54,1104.30 3995.00,1103.20 3993.46,1102.10 3991.00,1101.60"/>
        <lane id=":22_0_1" index="1" speed="13.89" length="8.40" shape="3999.00,1101.60 3991.00,1101.60"/>
    </edge>
    <edge id=":22_2" function="internal">
        <lane id=":22_2_0" index="0" speed="13.89" length="8.40" shape="3991.00,1098.40 3993.46,1097.90 3995.00,1096.80 3996.54,1095.70 3999.00,1095.20"/>
        <lane id=":22_2_1" index="1" speed="13.89" length="8.40" shape="3991.00,1098.40 3999.00,1098.40"/>
    </edge>
    <edge id=":23_0" function="internal">
        <lane id=":23_0_0" index="0" speed="13.89" length="8.40" shape="4209.00,1101.60 4206.54,1102.10 4205.00,1103.20 4203.46,1104.30 4201.00,1104.80"/>
        <lane id=":23_0_1" index="1" speed="13.89" length="8.40" shape="4209.00,1101.60 4201.00,1101.60"/>
    </edge>
    <edge id=":23_2" function="internal">
        <lane id=":23_2_0" index="0" speed="13.89" length="8.40" shape="4201.00,1095.20 4203.46,1095.70 4205.00,1096.80 4206.54,1097.90 4209.00,1098.40"/>
        <lane id=":23_2_1" index="1" speed="13.89" length="8.40" shape="4201.00,1098.40 4209.00,1098.40"/>
    </edge>
    <edge id=":24_0" function="internal">
        <lane id=":24_0_0" index="0" speed="13.89" length="8.40" shape="4999.00,1104.80 4996.54,1104.30 4995.00,1103.20 4993.46,1102.10 4991.00,1101.60"/>
        <lane id=":24_0_1" index="1" speed="13.89" length="8.40" shape="4999.00,1101.60 4991.00,1101.60"/>
    </edge>
    <edge id=":24_2" function="internal">
        <lane id=":24_2_0" index="0" speed="13.89" length="8.40" shape="4991.00,1098.40 4993.46,1097.90 4995.00,1096.80 4996.54,1095.70 4999.00,1095.20"/>
        <lane id=":24_2_1" index="1" speed="13.89" length="8.40" shape="4991.00,1098.40 4999.00,1098.40"/>
    </edge>
    <edge id=":25_0" function="internal">
        <lane id=":25_0_0" index="0" speed="13.89" length="8.40" shape="5209.00,1101.60 5206.54,1102.10 5205.00,1103.20 5203.46,1104.30 5201.00,1104.80"/>
        <lane id=":25_0_1" index="1" speed="13.89" length="8.40" shape="5209.00,1101.60 5201.00,1101.60"/>
    </edge>
    <edge id=":25_2" function="internal">
        <lane id=":25_2_0" index="0" speed="13.89" length="8.40" shape="5201.00,1095.20 5203.46,1095.70 5205.00,1096.80 5206.54,1097.90 5209.00,1098.40"/>
        <lane id=":25_2_1" index="1" speed="13.89" length="8.40" shape="5201.00,1098.40 5209.00,1098.40"/>
    </edge>
    <edge id=":26_0" function="internal">
        <lane id=":26_0_0" index="0" speed="13.89" length="0.10" shape="3098.40,100.00 3098.40,100.00"/>
    </edge>
    <edge id=":26_1" function="internal">
        <lane id=":26_1_0" index="0" speed="13.89" length="0.10" shape="3101.60,100.00 3101.60,100.00"/>
    </edge>
    <edge id=":27_0" function="internal">
        <lane id=":27_0_0" index="0" speed="13.89" length="8.40" shape="3095.20,999.00 3095.70,996.54 3096.80,995.00 3097.90,993.46 3098.40,991.00"/>
        <lane id=":27_0_1" index="1" speed="13.89" length="8.40" shape="3098.40,999.00 3098.40,991.00"/>
    </edge>
    <edge id=":27_2" function="internal">
        <lane id=":27_2_0" index="0" speed="13.89" length="8.40" shape="3101.60,991.00 3102.10,993.46 3103.20,995.00 3104.30,996.54 3104.80,999.00"/>
        <lane id=":27_2_1" index="1" speed="13.89" length="8.40" shape="3101.60,991.00 3101.60,999.00"/>
    </edge>
    <edge id=":28_0" function="internal">
        <lane id=":28_0_0" index="0" speed="13.89" length="8.40" shape="3098.40,1209.00 3097.90,1206.54 3096.80,1205.00 3095.70,1203.46 3095.20,1201.00"/>
        <lane id=":28_0_1" index="1" speed="13.89" length="8.40" shape="3098.40,1209.00 3098.40,1201.00"/>
    </edge>
    <edge id=":28_2" function="internal">
        <lane id=":28_2_0" index="0" speed="13.89" length="8.40" shape="3104.80,1201.00 3104.30,1203.46 3103.20,1205.00 3102.10,1206.54 3101.60,1209.00"/>
        <lane id=":28_2_1" index="1" speed="13.89" length="8.40" shape="3101.60,1201.00 3101.60,1209.00"/>
    </edge>
    <edge id=":29_0" function="internal">
        <lane id=":29_0_0" index="0" speed="13.89" length="0.10" shape="3098.40,2100.00 3098.40,2100.00"/>
    </edge>
    <edge id=":29_1" function="internal">
        <lane id=":29_1_0" index="0" speed="13.89" length="0.10" shape="3101.60,2100.00 3101.60,2100.00"/>
    </edge>
    <edge id=":3_0" function="internal">
        <lane id=":3_0_0" index="0" speed="13.89" length="20.80" shape="1095.20,1110.40 1095.20,1089.60"/>
    </edge>
    <edge id=":3_1" function="internal">
        <lane id=":3_1_0" index="0" speed="8.00" length="4.07" shape="1098.40,1110.40 1097.85,1106.55 1097.76,1106.40"/>
    </edge>
    <edge id=":3_2" function="internal">
        <lane id=":3_2_0" index="0" speed="13.89" length="20.80" shape="1098.40,1110.40 1098.40,1089.60"/>
    </edge>
    <edge id=":3_3" function="internal">
        <lane id=":3_3_0" index="0" speed="9.26" length="5.01" shape="1098.40,1110.40 1099.11,1105.44"/>
    </edge>
    <edge id=":3_16" function="internal">
        <lane id=":3_16_0" index="0" speed="8.00" length="10.13" shape="1097.76,1106.40 1096.20,1103.80 1093.45,1102.15 1089.60,1101.60"/>
    </edge>
    <edge id=":3_17" function="internal">
        <lane id=":3_17_0" index="0" speed="9.26" length="14.34" shape="1099.11,1105.44 1099.15,1105.15 1101.40,1101.40 1105.15,1099.15 1110.40,1098.40"/>
    </edge>
    <edge id=":3_4" function="internal">
        <lane id=":3_4_0" index="0" speed="13.89" length="20.80" shape="1110.40,1104.80 1089.60,1104.80"/>
    </edge>
    <edge id=":3_5" function="internal">
        <lane id=":3_5_0" index="0" speed="8.00" length="4.07" shape="1110.40,1101.60 1106.55,1102.15 1106.40,1102.24"/>
    </edge>
    <edge id=":3_6" function="internal">
        <lane id=":3_6_0" index="0" speed="13.89" length="20.80" shape="1110.40,1101.60 1089.60,1101.60"/>
    </edge>
    <edge id=":3_7" function="internal">
        <lane id=":3_7_0" index="0" speed="9.26" length="5.01" shape="1110.40,1101.60 1105.44,1100.89"/>
    </edge>
    <edge id=":3_18" function="internal">
        <lane id=":3_18_0" index="0" speed="8.00" length="10.13" shape="1106.40,1102.24 1103.80,1103.80 1102.15,1106.55 1101.60,1110.40"/>
    </edge>
    <edge id=":3_19" function="internal">
        <lane id=":3_19_0" index="0" speed="9.26" length="14.34" shape="1105.44,1100.89 1105.15,1100.85 1101.40,1098.60 1099.15,1094.85 1098.40,1089.60"/>
    </edge>
    <edge id=":3_8" function="internal">
        <lane id=":3_8_0" index="0" speed="13.89" length="20.80" shape="1104.80,1089.60 1104.80,1110.40"/>
    </edge>
    <edge id=":3_9" function="internal">
        <lane id=":3_9_0" index="0" speed="8.00" length="4.07" shape="1101.60,1089.60 1102.15,1093.45 1102.24,1093.60"/>
    </edge>
    <edge id=":3_10" function="internal">
        <lane id=":3_10_0" index="0" speed="13.89" length="20.80" shape="1101.60,1089.60 1101.60,1110.40"/>
    </edge>
    <edge id=":3_11" function="internal">
        <lane id=":3_11_0" index="0" speed="9.26" length="5.01" shape="1101.60,1089.60 1100.89,1094.56"/>
    </edge>
    <edge id=":3_20" function="internal">
        <lane id=":3_20_0" index="0" speed="8.00" length="10.13" shape="1102.24,1093.60 1103.80,1096.20 1106.55,1097.85 1110.40,1098.40"/>
    </edge>
    <edge id=":3_21" function="internal">
        <lane id=":3_21_0" index="0" speed="9.26" length="14.34" shape="1100.89,1094.56 1100.85,1094.85 1098.60,1098.60 1094.85,1100.85 1089.60,1101.60"/>
    </edge>
    <edge id=":3_12" function="internal">
        <lane id=":3_12_0" index="0" speed="13.89" length="20.80" shape="1089.60,1095.20 1110.40,1095.20"/>
    </edge>
    <edge id=":3_13" function="internal">
        <lane id=":3_13_0" index="0" speed="8.00" length="4.07" shape="1089.60,1098.40 1093.45,1097.85 1093.60,1097.76"/>
    </edge>
    <edge id=":3_14" function="internal">
        <lane id=":3_14_0" index="0" speed="13.89" length="20.80" shape="1089.60,1098.40 1110.40,1098.40"/>
    </edge>
    <edge id=":3_15" function="internal">
        <lane id=":3_15_0" index="0" speed="9.26" length="5.01" shape="1089.60,1098.40 1094.56,1099.11"/>
    </edge>
    <edge id=":3_22" function="internal">
        <lane id=":3_22_0" index="0" speed="8.00" length="10.13" shape="1093.60,1097.76 1096.20,1096.20 1097.85,1093.45 1098.40,1089.60"/>
    </edge>
    <edge id=":3_23" function="internal">
        <lane id=":3_23_0" index="0" speed="9.26" length="14.34" shape="1094.56,1099.11 1094.85,1099.15 1098.60,1101.40 1100.85,1105.15 1101.60,1110.40"/>
    </edge>
    <edge id=":30_0" function="internal">
        <lane id=":30_0_0" index="0" speed="13.89" length="0.10" shape="4098.40,100.00 4098.40,100.00"/>
    </edge>
    <edge id=":30_1" function="internal">
        <lane id=":30_1_0" index="0" speed="13.89" length="0.10" shape="4101.60,100.00 4101.60,100.00"/>
    </edge>
    <edge id=":31_0" function="internal">
        <lane id=":31_0_0" index="0" speed="13.89" length="8.40" shape="4095.20,999.00 4095.70,996.54 4096.80,995.00 4097.90,993.46 4098.40,991.00"/>
        <lane id=":31_0_1" index="1" speed="13.89" length="8.40" shape="4098.40,999.00 4098.40,991.00"/>
    </edge>
    <edge id=":31_2" function="internal">
        <lane id=":31_2_0" index="0" speed="13.89" length="8.40" shape="4101.60,991.00 4102.10,993.46 4103.20,995.00 4104.30,996.54 4104.80,999.00"/>
        <lane id=":31_2_1" index="1" speed="13.89" length="8.40" shape="4101.60,991.00 4101.60,999.00"/>
    </edge>
    <edge id=":32_0" function="internal">
        <lane id=":32_0_0" index="0" speed="13.89" length="8.40" shape="4098.40,1209.00 4097.90,1206.54 4096.80,1205.00 4095.70,1203.46 4095.20,1201.00"/>
        <lane id=":32_0_1" index="1" speed="13.89" length="8.40" shape="4098.40,1209.00 4098.40,1201.00"/>
    </edge>
    <edge id=":32_2" function="internal">
        <lane id=":32_2_0" index="0" speed="13.89" length="8.40" shape="4104.80,1201.00 4104.30,1203.46 4103.20,1205.00 4102.10,1206.54 4101.60,1209.00"/>
        <lane id=":32_2_1" index="1" speed="13.89" length="8.40" shape="4101.60,1201.00 4101.60,1209.00"/>
    </edge>
    <edge id=":33_0" function="internal">
        <lane id=":33_0_0" index="0" speed="13.89" length="0.10" shape="4098.40,2100.00 4098.40,2100.00"/>
    </edge>
    <edge id=":33_1" function="internal">
        <lane id=":33_1_0" index="0" speed="13.89" length="0.10" shape="4101.60,2100.00 4101.60,2100.00"/>
    </edge>
    <edge id=":34_0" function="internal">