<edges>

<!-- 


                    c              e              g              i              k
                    │              │              │              │              │
                    9             13             26             30             34
                    │              │              │              │              │
                   10             14             27             31             35
                    │              │              │              │              │
   a────1────2────[3]────4────5──[6]────7───20─[17]───21───22─[18]───23───24─[19]───25────8────b
                    │              │              │              │              │
                   11             15             28             32             36
                    │              │              │              │              │
                   12             16             29             33             37
                    │              │              │              │              │
                    d              f              h              j              l


   x=-1100        x=0          x=1000         x=2000         x=3000         x=4000        x=5100
   (Entry)      TLS-1          TLS-2          TLS-3          TLS-4          TLS-5         (Exit)

-->

<!-- ========================================== -->
<!-- ARTERIAL: West to East (5 Intersections)  -->
<!-- ========================================== -->

<!-- Entry segment -->
<edge id="a_1" from="a" to="1"  numLanes="1" speed="13.89"/>

<!-- TLS-1 @ x=0 -->
<edge id="1_2" from="1" to="2" numLanes="1" speed="13.89"/>
<edge id="2_3" from="2" to="3" numLanes="2" speed="13.89"/>
<edge id="3_4" from="3" to="4" numLanes="2" speed="13.89"/> <!-- bus stop 1 -->
<edge id="4_5" from="4" to="5" numLanes="1" speed="13.89"/>

<!-- TLS-2 @ x=1000 -->
<edge id="5_6" from="5" to="6"   numLanes="2" speed="13.89"/>
<edge id="6_7" from="6" to="7"  numLanes="2" speed="13.89"/> <!-- bus stop 2 -->
<edge id="7_20" from="7" to="20" numLanes="1" speed="13.89"/>

<!-- TLS-3 @ x=2000 -->
<edge id="20_17" from="20" to="17" numLanes="2" speed="13.89"/>
<edge id="17_21" from="17" to="21" numLanes="2" speed="13.89"/> <!-- bus stop 3 -->
<edge id="21_22" from="21" to="22" numLanes="1" speed="13.89"/>

<!-- TLS-4 @ x=3000 -->
<edge id="22_18" from="22" to="18" numLanes="2" speed="13.89"/>
<edge id="18_23" from="18" to="23" numLanes="2" speed="13.89"/> <!-- bus stop 4 -->
<edge id="23_24" from="23" to="24" numLanes="1" speed="13.89"/>

<!-- TLS-5 @ x=4000 -->
<edge id="24_19" from="24" to="19" numLanes="2" speed="13.89"/>
<edge id="19_25" from="19" to="25" numLanes="2" speed="13.89"/> <!-- bus stop 5 -->
<edge id="25_8" from="25" to="8" numLanes="1" speed="13.89"/>

<!-- Exit segment -->
<edge id="8_b" from="8" to="b"  numLanes="1" speed="13.89"/>


<!-- ========================================== -->
<!-- ARTERIAL: East to West (5 Intersections)  -->
<!-- ========================================== -->

<!-- Entry segment -->
<edge id="b_8" from="b" to="8"  numLanes="1" speed="13.89"/>

<!-- TLS-5 @ x=4000 -->
<edge id="8_25" from="8" to="25" numLanes="1" speed="13.89"/>
<edge id="25_19" from="25" to="19" numLanes="2" speed="13.89"/>
<edge id="19_24" from="19" to="24" numLanes="2" speed="13.89"/> <!-- bus stop 6 -->
<edge id="24_23" from="24" to="23" numLanes="1" speed="13.89"/>

<!-- TLS-4 @ x=3000 -->
<edge id="23_18" from="23" to="18" numLanes="2" speed="13.89"/>
<edge id="18_22" from="18" to="22" numLanes="2" speed="13.89"/> <!-- bus stop 7 -->
<edge id="22_21" from="22" to="21" numLanes="1" speed="13.89"/>

<!-- TLS-3 @ x=2000 -->
<edge id="21_17" from="21" to="17" numLanes="2" speed="13.89"/>
<edge id="17_20" from="17" to="20" numLanes="2" speed="13.89"/> <!-- bus stop 8 -->
<edge id="20_7" from="20" to="7" numLanes="1" speed="13.89"/>

<!-- TLS-2 @ x=1000 -->
<edge id="7_6" from="7" to="6" numLanes="2" speed="13.89"/>
<edge id="6_5" from="6" to="5" numLanes="2" speed="13.89"/> <!-- bus stop 9 -->
<edge id="5_4" from="5" to="4" numLanes="1" speed="13.89"/>

<!-- TLS-1 @ x=0 -->
<edge id="4_3" from="4" to="3"   numLanes="2" speed="13.89"/>
<edge id="3_2" from="3" to="2"  numLanes="2" speed="13.89"/> <!-- bus stop 10 -->
<edge id="2_1" from="2" to="1"  numLanes="1" speed="13.89"/>

<!-- Exit segment -->
<edge id="1_a" from="1" to="a"  numLanes="1" speed="13.89"/>


<!-- ========================================== -->
<!-- VERTICAL @ TLS-1 (x=0): South to North    -->
<!-- ========================================== -->

<edge id="c_9" from="c" to="9"  numLanes="1" speed="13.89"/>
<edge id="9_10" from="9" to="10" numLanes="1" speed="13.89"/>
<edge id="10_3" from="10" to="3" numLanes="2" speed="13.89"/>
<edge id="3_11" from="3" to="11" numLanes="2" speed="13.89"/>
<edge id="11_12" from="11" to="12" numLanes="1" speed="13.89"/>
<edge id="12_d" from="12" to="d"  numLanes="1" speed="13.89"/>


<!-- VERTICAL @ TLS-1 (x=0): North to South    -->

<edge id="d_12" from="d" to="12"  numLanes="1" speed="13.89"/>
<edge id="12_11" from="12" to="11" numLanes="1" speed="13.89"/>
<edge id="11_3" from="11" to="3" numLanes="2" speed="13.89"/>
<edge id="3_10" from="3" to="10" numLanes="2" speed="13.89"/>
<edge id="10_9" from="10" to="9" numLanes="1" speed="13.89"/>
<edge id="9_c" from="9" to="c"  numLanes="1" speed="13.89"/>


<!-- ========================================== -->
<!-- VERTICAL @ TLS-2 (x=1000): South to North -->
<!-- ========================================== -->

<edge id="e_13" from="e" to="13"  numLanes="1" speed="13.89"/>
<edge id="13_14" from="13" to="14" numLanes="1" speed="13.89"/>
<edge id="14_6" from="14" to="6" numLanes="2" speed="13.89"/>
<edge id="6_15" from="6" to="15" numLanes="2" speed="13.89"/>
<edge id="15_16" from="15" to="16" numLanes="1" speed="13.89"/>
<edge id="16_f" from="16" to="f"  numLanes="1" speed="13.89"/>


<!-- VERTICAL @ TLS-2 (x=1000): North to South -->

<edge id="f_16" from="f" to="16"  numLanes="1" speed="13.89"/>
<edge id="16_15" from="16" to="15" numLanes="1" speed="13.89"/>
<edge id="15_6" from="15" to="6" numLanes="2" speed="13.89"/>
<edge id="6_14" from="6" to="14" numLanes="2" speed="13.89"/>
<edge id="14_13" from="14" to="13" numLanes="1" speed="13.89"/>
<edge id="13_e" from="13" to="e"  numLanes="1" speed="13.89"/>


<!-- ========================================== -->
<!-- VERTICAL @ TLS-3 (x=2000): South to North -->
<!-- ========================================== -->

<edge id="g_26" from="g" to="26"  numLanes="1" speed="13.89"/>
<edge id="26_27" from="26" to="27" numLanes="1" speed="13.89"/>
<edge id="27_17" from="27" to="17" numLanes="2" speed="13.89"/>
<edge id="17_28" from="17" to="28" numLanes="2" speed="13.89"/>
<edge id="28_29" from="28" to="29" numLanes="1" speed="13.89"/>
<edge id="29_h" from="29" to="h"  numLanes="1" speed="13.89"/>


<!-- VERTICAL @ TLS-3 (x=2000): North to South -->

<edge id="h_29" from="h" to="29"  numLanes="1" speed="13.89"/>
<edge id="29_28" from="29" to="28" numLanes="1" speed="13.89"/>
<edge id="28_17" from="28" to="17" numLanes="2" speed="13.89"/>
<edge id="17_27" from="17" to="27" numLanes="2" speed="13.89"/>
<edge id="27_26" from="27" to="26" numLanes="1" speed="13.89"/>
<edge id="26_g" from="26" to="g"  numLanes="1" speed="13.89"/>


<!-- ========================================== -->
<!-- VERTICAL @ TLS-4 (x=3000): South to North -->
<!-- ========================================== -->

<edge id="i_30" from="i" to="30"  numLanes="1" speed="13.89"/>
<edge id="30_31" from="30" to="31" numLanes="1" speed="13.89"/>
<edge id="31_18" from="31" to="18" numLanes="2" speed="13.89"/>
<edge id="18_32" from="18" to="32" numLanes="2" speed="13.89"/>
<edge id="32_33" from="32" to="33" numLanes="1" speed="13.89"/>
<edge id="33_j" from="33" to="j"  numLanes="1" speed="13.89"/>


<!-- VERTICAL @ TLS-4 (x=3000): North to South -->

<edge id="j_33" from="j" to="33"  numLanes="1" speed="13.89"/>
<edge id="33_32" from="33" to="32" numLanes="1" speed="13.89"/>
<edge id="32_18" from="32" to="18" numLanes="2" speed="13.89"/>
<edge id="18_31" from="18" to="31" numLanes="2" speed="13.89"/>
<edge id="31_30" from="31" to="30" numLanes="1" speed="13.89"/>
<edge id="30_i" from="30" to="i"  numLanes="1" speed="13.89"/>


<!-- ========================================== -->
<!-- VERTICAL @ TLS-5 (x=4000): South to North -->
<!-- ========================================== -->

<edge id="k_34" from="k" to="34"  numLanes="1" speed="13.89"/>
<edge id="34_35" from="34" to="35" numLanes="1" speed="13.89"/>
<edge id="35_19" from="35" to="19" numLanes="2" speed="13.89"/>
<edge id="19_36" from="19" to="36" numLanes="2" speed="13.89"/>
<edge id="36_37" from="36" to="37" numLanes="1" speed="13.89"/>
<edge id="37_l" from="37" to="l"  numLanes="1" speed="13.89"/>


<!-- VERTICAL @ TLS-5 (x=4000): North to South -->

<edge id="l_37" from="l" to="37"  numLanes="1" speed="13.89"/>
<edge id="37_36" from="37" to="36" numLanes="1" speed="13.89"/>
<edge id="36_19" from="36" to="19" numLanes="2" speed="13.89"/>
<edge id="19_35" from="19" to="35" numLanes="2" speed="13.89"/>
<edge id="35_34" from="35" to="34" numLanes="1" speed="13.89"/>
<edge id="34_k" from="34" to="k"  numLanes="1" speed="13.89"/>

</edges>