<?xml version="1.0" encoding="UTF-8"?>

<!-- generated on 2025-12-05 17:09:27 by Eclipse SUMO netedit Version 1.24.0
<neteditConfiguration xmlns:xsi="http://www.w3.org/2001/XMLSchema-instance" xsi:noNamespaceSchemaLocation="http://sumo.dlr.de/xsd/neteditConfiguration.xsd">

    <input>
        <sumo-net-file value="/Users/chaklader/PycharmProjects/SignalSyncPro/infrastructure/developed/drl/multi_agent/network/common.net.xml"/>
    </input>

    <output>
        <output-file value="/Users/chaklader/PycharmProjects/SignalSyncPro/infrastructure/developed/drl/multi_agent/network/common.net.xml"/>
    </output>

    <processing>
        <geometry.min-radius.fix.railways value="false"/>
        <geometry.avoid-overlap value="false"/>
        <geometry.max-grade.fix value="false"/>
        <offset.disable-normalization value="true"/>
        <lefthand value="0"/>
    </processing>

    <junctions>
        <no-turnarounds value="true"/>
        <junctions.corner-detail value="5"/>
        <junctions.limit-turn-speed value="5.50"/>
        <rectangular-lane-cut value="0"/>
    </junctions>

    <pedestrian>
        <walkingareas value="0"/>
    </pedestrian>

</neteditConfiguration>
-->

<net version="1.20" junctionCornerDetail="5" limitTurnSpeed="5.50" avoidOverlap="0" xmlns:xsi="http://www.w3.org/2001/XMLSchema-instance" xsi:noNamespaceSchemaLocation="http://sumo.dlr.de/xsd/net_file.xsd">

    <location netOffset="1100.00,1100.00" convBoundary="0.00,0.00,6200.00,2200.00" origBoundary="-1100.00,-1100.00,5100.00,1100.00" projParameter="!"/>

    <edge id=":1_0" function="internal">
        <lane id=":1_0_0" index="0" allow="private bus" speed="13.89" length="0.10" shape="100.00,1101.60 100.00,1101.60"/>
    </edge>
    <edge id=":1_1" function="internal">
        <lane id=":1_1_0" index="0" allow="private bus" speed="13.89" length="0.10" shape="100.00,1098.40 100.00,1098.40"/>
    </edge>
    <edge id=":10_0" function="internal">
        <lane id=":10_0_0" index="0" allow="private bus" speed="13.89" length="8.40" shape="1095.20,999.00 1095.70,996.54 1096.80,995.00 1097.90,993.46 1098.40,991.00"/>
        <lane id=":10_0_1" index="1" allow="private bus" speed="13.89" length="8.40" shape="1098.40,999.00 1098.40,991.00"/>
    </edge>
    <edge id=":10_2" function="internal">
        <lane id=":10_2_0" index="0" allow="private bus" speed="13.89" length="8.40" shape="1101.60,991.00 1102.10,993.46 1103.20,995.00 1104.30,996.54 1104.80,999.00"/>
        <lane id=":10_2_1" index="1" allow="private bus" speed="13.89" length="8.40" shape="1101.60,991.00 1101.60,999.00"/>
    </edge>
    <edge id=":11_0" function="internal">
        <lane id=":11_0_0" index="0" allow="private bus" speed="13.89" length="8.40" shape="1098.40,1209.00 1097.90,1206.54 1096.80,1205.00 1095.70,1203.46 1095.20,1201.00"/>
        <lane id=":11_0_1" index="1" allow="private bus" speed="13.89" length="8.40" shape="1098.40,1209.00 1098.40,1201.00"/>
    </edge>
    <edge id=":11_2" function="internal">
        <lane id=":11_2_0" index="0" allow="private bus" speed="13.89" length="8.40" shape="1104.80,1201.00 1104.30,1203.46 1103.20,1205.00 1102.10,1206.54 1101.60,1209.00"/>
        <lane id=":11_2_1" index="1" allow="private bus" speed="13.89" length="8.40" shape="1101.60,1201.00 1101.60,1209.00"/>
    </edge>
    <edge id=":12_0" function="internal">
        <lane id=":12_0_0" index="0" allow="private bus" speed="13.89" length="0.10" shape="1098.40,2100.00 1098.40,2100.00"/>
    </edge>
    <edge id=":12_1" function="internal">
        <lane id=":12_1_0" index="0" allow="private bus" speed="13.89" length="0.10" shape="1101.60,2100.00 1101.60,2100.00"/>
    </edge>
    <edge id=":13_0" function="internal">
        <lane id=":13_0_0" index="0" allow="private bus" speed="13.89" length="0.10" shape="2098.40,100.00 2098.40,100.00"/>
    </edge>
    <edge id=":13_1" function="internal">
        <lane id=":13_1_0" index="0" allow="private bus" speed="13.89" length="0.10" shape="2101.60,100.00 2101.60,100.00"/>
    </edge>
    <edge id=":14_0" function="internal">
        <lane id=":14_0_0" index="0" allow="private bus" speed="13.89" length="8.40" shape="2095.20,999.00 2095.70,996.54 2096.80,995.00 2097.90,993.46 2098.40,991.00"/>
        <lane id=":14_0_1" index="1" allow="private bus" speed="13.89" length="8.40" shape="2098.40,999.00 2098.40,991.00"/>
    </edge>
    <edge id=":14_2" function="internal">
        <lane id=":14_2_0" index="0" allow="private bus" speed="13.89" length="8.40" shape="2101.60,991.00 2102.10,993.46 2103.20,995.00 2104.30,996.54 2104.80,999.00"/>
        <lane id=":14_2_1" index="1" allow="private bus" speed="13.89" length="8.40" shape="2101.60,991.00 2101.60,999.00"/>
    </edge>
    <edge id=":15_0" function="internal">
        <lane id=":15_0_0" index="0" allow="private bus" speed="13.89" length="8.40" shape="2098.40,1209.00 2097.90,1206.54 2096.80,1205.00 2095.70,1203.46 2095.20,1201.00"/>
        <lane id=":15_0_1" index="1" allow="private bus" speed="13.89" length="8.40" shape="2098.40,1209.00 2098.40,1201.00"/>
    </edge>
    <edge id=":15_2" function="internal">
        <lane id=":15_2_0" index="0" allow="private bus" speed="13.89" length="8.40" shape="2104.80,1201.00 2104.30,1203.46 2103.20,1205.00 2102.10,1206.54 2101.60,1209.00"/>
        <lane id=":15_2_1" index="1" allow="private bus" speed="13.89" length="8.40" shape="2101.60,1201.00 2101.60,1209.00"/>
    </edge>
    <edge id=":16_0" function="internal">
        <lane id=":16_0_0" index="0" allow="private bus" speed="13.89" length="0.10" shape="2098.40,2100.00 2098.40,2100.00"/>
    </edge>
    <edge id=":16_1" function="internal">
        <lane id=":16_1_0" index="0" allow="private bus" speed="13.89" length="0.10" shape="2101.60,2100.00 2101.60,2100.00"/>
    </edge>
    <edge id=":17_0" function="internal">
        <lane id=":17_0_0" index="0" allow="private bus" speed="4.83" length="4.51" shape="3095.20,1107.98 3095.05,1106.59 3094.60,1105.59 3093.86,1105.00 3092.81,1104.80"/>
        <lane id=":17_0_1" index="1" allow="private bus" speed="6.00" length="7.52" shape="3095.20,1107.98 3095.04,1105.19 3094.54,1103.19 3093.72,1102.00 3092.57,1101.60"/>
    </edge>
    <edge id=":17_2" function="internal">
        <lane id=":17_2_0" index="0" allow="private bus" speed="13.89" length="18.01" shape="3095.20,1107.98 3095.20,1090.28"/>
        <lane id=":17_2_1" index="1" allow="private bus" speed="13.89" length="18.01" shape="3095.20,1107.98 3095.70,1102.61 3096.80,1099.00 3097.90,1095.40 3098.40,1090.03"/>
    </edge>
    <edge id=":17_4" function="internal">
        <lane id=":17_4_0" index="0" allow="private bus" speed="8.58" length="16.49" shape="3098.40,1107.62 3099.18,1103.52 3101.24,1099.49 3104.15,1096.42 3107.49,1095.20"/>
        <lane id=":17_4_1" index="1" allow="private bus" speed="7.95" length="13.99" shape="3098.40,1107.62 3099.21,1104.36 3101.33,1101.39 3104.25,1099.23 3107.49,1098.40"/>
    </edge>
    <edge id=":17_6" function="internal">
        <lane id=":17_6_0" index="0" allow="pedestrian" speed="13.89" length="14.85" width="1.00" shape="3107.49,1103.12 3103.10,1102.78 3100.08,1102.67 3097.07,1102.78 3092.67,1103.14"/>
    </edge>
    <edge id=":17_7" function="internal">
        <lane id=":17_7_0" index="0" allow="bicycle" speed="5.89" length="8.93" width="1.00" shape="3107.49,1102.11 3104.96,1102.26 3103.23,1103.19 3102.28,1104.89 3102.13,1107.37"/>
        <lane id=":17_7_1" index="1" allow="bicycle" speed="6.17" length="9.84" width="1.00" shape="3107.49,1102.11 3104.52,1102.24 3102.47,1103.17 3101.34,1104.90 3101.13,1107.44"/>
    </edge>
    <edge id=":17_9" function="internal">
        <lane id=":17_9_0" index="0" allow="bicycle" speed="13.89" length="14.98" width="1.00" shape="3107.49,1102.11 3103.08,1101.77 3100.05,1101.66 3097.02,1101.78 3092.60,1102.14"/>
        <lane id=":17_9_1" index="1" allow="bicycle" speed="13.89" length="14.98" width="1.00" shape="3107.49,1102.11 3103.05,1101.62 3100.01,1101.16 3096.97,1100.94 3092.53,1101.15"/>
    </edge>
    <edge id=":17_11" function="internal">
        <lane id=":17_11_0" index="0" allow="bicycle" speed="8.91" length="2.20" width="1.00" shape="3107.49,1101.11 3105.35,1100.59"/>
        <lane id=":17_11_1" index="1" allow="bicycle" speed="8.73" length="2.46" width="1.00" shape="3107.49,1101.11 3105.11,1100.48"/>
    </edge>
    <edge id=":17_52" function="internal">
        <lane id=":17_52_0" index="0" allow="bicycle" speed="8.91" length="14.07" width="1.00" shape="3105.35,1100.59 3103.52,1100.15 3100.56,1097.99 3098.61,1094.64 3097.68,1090.09"/>
        <lane id=":17_52_1" index="0" allow="bicycle" speed="8.73" length="13.13" width="1.00" shape="3105.11,1100.48 3103.96,1100.17 3101.31,1098.01 3099.55,1094.62 3098.68,1090.01"/>
    </edge>
    <edge id=":17_13" function="internal">
        <lane id=":17_13_0" index="0" allow="private bus" speed="4.64" length="4.08" shape="3107.49,1104.80 3106.31,1104.95 3105.47,1105.39 3104.97,1106.13 3104.80,1107.16"/>
        <lane id=":17_13_1" index="1" allow="private bus" speed="5.84" length="7.06" shape="3107.49,1104.80 3104.91,1104.96 3103.07,1105.45 3101.97,1106.26 3101.60,1107.40"/>
    </edge>
    <edge id=":17_15" function="internal">
        <lane id=":17_15_0" index="0" allow="private bus" speed="13.89" length="15.03" shape="3107.49,1104.80 3092.81,1104.80"/>
        <lane id=":17_15_1" index="1" allow="private bus" speed="13.89" length="15.03" shape="3107.49,1104.80 3103.01,1104.30 3100.03,1103.20 3097.04,1102.10 3092.57,1101.60"/>
    </edge>
    <edge id=":17_17" function="internal">
        <lane id=":17_17_0" index="0" allow="private bus" speed="8.96" length="5.99" shape="3107.49,1101.60 3103.22,1100.61 3101.87,1099.74"/>
        <lane id=":17_17_1" index="1" allow="private bus" speed="8.42" length="15.81" shape="3107.49,1101.60 3104.15,1100.48 3101.24,1097.66 3099.18,1093.91 3098.40,1090.03"/>
    </edge>
    <edge id=":17_53" function="internal">
        <lane id=":17_53_0" index="0" allow="private bus" speed="8.96" length="12.05" shape="3101.87,1099.74 3099.26,1098.03 3096.34,1094.40 3095.20,1090.28"/>
    </edge>
    <edge id=":17_19" function="internal">
        <lane id=":17_19_0" index="0" allow="pedestrian" speed="13.89" length="17.68" width="1.00" shape="3103.29,1089.65 3102.88,1094.88 3102.68,1098.48 3102.74,1102.07 3103.13,1107.30"/>
    </edge>
    <edge id=":17_20" function="internal">
        <lane id=":17_20_0" index="0" allow="bicycle" speed="6.63" length="11.32" width="1.00" shape="3102.28,1089.73 3102.36,1093.48 3103.26,1096.09 3104.97,1097.57 3107.49,1097.90"/>
        <lane id=":17_20_1" index="1" allow="bicycle" speed="6.86" length="12.17" width="1.00" shape="3102.28,1089.73 3102.33,1093.92 3103.20,1096.85 3104.89,1098.51 3107.41,1098.91"/>
    </edge>
    <edge id=":17_22" function="internal">
        <lane id=":17_22_0" index="0" allow="bicycle" speed="13.89" length="17.73" width="1.00" shape="3102.28,1089.73 3101.87,1094.96 3101.68,1098.55 3101.75,1102.14 3102.13,1107.37"/>
        <lane id=":17_22_1" index="1" allow="bicycle" speed="13.89" length="17.73" width="1.00" shape="3102.28,1089.73 3101.71,1094.98 3101.17,1098.58 3100.90,1102.18 3101.13,1107.44"/>
    </edge>
    <edge id=":17_24" function="internal">
        <lane id=":17_24_0" index="0" allow="bicycle" speed="8.97" length="16.51" width="1.00" shape="3101.27,1089.81 3100.40,1094.95 3098.66,1098.72 3096.07,1101.12 3092.60,1102.14"/>
        <lane id=":17_24_1" index="1" allow="bicycle" speed="8.76" length="15.74" width="1.00" shape="3101.27,1089.81 3100.42,1094.51 3098.69,1097.97 3096.05,1100.18 3092.53,1101.15"/>
    </edge>
    <edge id=":17_26" function="internal">
        <lane id=":17_26_0" index="0" allow="private bus" speed="5.78" length="6.91" shape="3104.80,1089.53 3104.97,1092.01 3105.47,1093.78 3106.31,1094.85 3107.49,1095.20"/>
        <lane id=":17_26_1" index="1" allow="private bus" speed="6.77" length="9.86" shape="3104.80,1089.53 3104.97,1093.41 3105.47,1096.18 3106.31,1097.85 3107.49,1098.40"/>
    </edge>
    <edge id=":17_28" function="internal">
        <lane id=":17_28_0" index="0" allow="private bus" speed="13.89" length="17.94" shape="3104.80,1089.53 3104.80,1107.16"/>
        <lane id=":17_28_1" index="1" allow="private bus" speed="13.89" length="17.94" shape="3104.80,1089.53 3104.30,1094.88 3103.20,1098.47 3102.10,1102.06 3101.60,1107.40"/>
    </edge>
    <edge id=":17_30" function="internal">
        <lane id=":17_30_0" index="0" allow="private bus" speed="9.05" length="18.44" shape="3101.60,1089.78 3100.84,1094.58 3098.85,1099.47 3096.04,1103.27 3092.81,1104.80"/>
        <lane id=":17_30_1" index="1" allow="private bus" speed="8.45" length="15.96" shape="3101.60,1089.78 3100.82,1093.72 3098.78,1097.55 3095.88,1100.45 3092.57,1101.60"/>
    </edge>
    <edge id=":17_32" function="internal">
        <lane id=":17_32_0" index="0" allow="pedestrian" speed="13.89" length="15.41" width="1.00" shape="3092.12,1096.79 3096.67,1097.18 3099.80,1097.33 3102.93,1097.23 3107.49,1096.90"/>
    </edge>
    <edge id=":17_33" function="internal">
        <lane id=":17_33_0" index="0" disallow="all" speed="6.29" length="10.26" width="1.00" shape="3092.30,1097.81 3094.47,1097.50 3095.92,1096.12 3096.66,1093.68 3096.68,1090.17"/>
        <lane id=":17_33_1" index="1" allow="bicycle" speed="6.53" length="11.10" width="1.00" shape="3092.30,1097.81 3094.91,1097.53 3096.67,1096.15 3097.60,1093.67 3097.68,1090.09"/>
    </edge>
    <edge id=":17_35" function="internal">
        <lane id=":17_35_0" index="0" allow="bicycle" speed="13.89" length="15.21" width="1.00" shape="3092.30,1097.81 3096.80,1098.19 3099.89,1098.33 3102.99,1098.24 3107.49,1097.90"/>
        <lane id=":17_35_1" index="1" allow="bicycle" speed="13.89" length="15.21" width="1.00" shape="3092.30,1097.81 3096.78,1098.35 3099.85,1098.84 3102.92,1099.09 3107.41,1098.91"/>
    </edge>
    <edge id=":17_37" function="internal">
        <lane id=":17_37_0" index="0" allow="bicycle" speed="8.39" length="8.18" width="1.00" shape="3092.37,1098.82 3096.39,1099.66 3099.36,1101.36 3099.75,1101.88"/>
        <lane id=":17_37_1" index="1" allow="bicycle" speed="8.18" length="6.83" width="1.00" shape="3092.37,1098.82 3095.95,1099.63 3098.61,1101.33"/>
    </edge>
    <edge id=":17_54" function="internal">
        <lane id=":17_54_0" index="0" allow="bicycle" speed="8.39" length="6.09" width="1.00" shape="3099.75,1101.88 3101.27,1103.93 3102.13,1107.37"/>
        <lane id=":17_54_1" index="0" allow="bicycle" speed="8.18" length="6.71" width="1.00" shape="3098.61,1101.33 3100.33,1103.94 3101.13,1107.44"/>
    </edge>
    <edge id=":17_39" function="internal">
        <lane id=":17_39_0" index="0" allow="private bus" speed="5.68" length="6.62" shape="3091.98,1095.20 3093.39,1094.89 3094.40,1093.97 3095.00,1092.43 3095.20,1090.28"/>
        <lane id=":17_39_1" index="1" allow="private bus" speed="6.61" length="9.36" shape="3091.98,1095.20 3094.79,1094.88 3096.80,1093.91 3098.00,1092.29 3098.40,1090.03"/>
    </edge>
    <edge id=":17_41" function="internal">
        <lane id=":17_41_0" index="0" allow="private bus" speed="13.89" length="15.73" shape="3091.98,1095.20 3107.49,1095.20"/>
        <lane id=":17_41_1" index="1" allow="private bus" speed="13.89" length="15.73" shape="3091.98,1095.20 3096.63,1095.70 3099.74,1096.80 3102.84,1097.90 3107.49,1098.40"/>
    </edge>
    <edge id=":17_43" function="internal">
        <lane id=":17_43_0" index="0" allow="private bus" speed="8.53" length="9.01" shape="3092.34,1098.40 3096.43,1099.15 3100.47,1101.14 3100.73,1101.37"/>
        <lane id=":17_43_1" index="1" allow="private bus" speed="7.94" length="13.95" shape="3092.34,1098.40 3095.60,1099.20 3098.58,1101.29 3100.76,1104.18 3101.60,1107.40"/>
    </edge>
    <edge id=":17_55" function="internal">
        <lane id=":17_55_0" index="0" allow="private bus" speed="8.53" length="7.28" shape="3100.73,1101.37 3103.57,1103.95 3104.80,1107.16"/>
    </edge>
    <edge id=":17_45" function="internal">
        <lane id=":17_45_0" index="0" allow="pedestrian" speed="13.89" length="17.72" width="1.00" shape="3096.79,1107.84 3097.21,1102.60 3097.30,1099.01 3097.12,1095.41 3096.68,1090.17"/>
    </edge>
    <edge id=":17_46" function="internal">
        <lane id=":17_46_0" index="0" allow="bicycle" speed="5.91" length="9.05" width="1.00" shape="3097.81,1107.66 3097.69,1105.06 3096.78,1103.28 3095.08,1102.30 3092.60,1102.14"/>
        <lane id=":17_46_1" index="1" allow="bicycle" speed="6.19" length="9.97" width="1.00" shape="3097.81,1107.66 3097.72,1104.62 3096.81,1102.52 3095.08,1101.36 3092.53,1101.15"/>
    </edge>
    <edge id=":17_48" function="internal">
        <lane id=":17_48_0" index="0" allow="bicycle" speed="13.89" length="17.67" width="1.00" shape="3097.81,1107.66 3098.22,1102.46 3098.31,1098.88 3098.11,1095.30 3097.68,1090.09"/>
        <lane id=":17_48_1" index="1" allow="bicycle" speed="13.89" length="17.67" width="1.00" shape="3097.81,1107.66 3098.38,1102.43 3098.81,1098.84 3098.96,1095.25 3098.68,1090.01"/>
    </edge>
    <edge id=":17_50" function="internal">
        <lane id=":17_50_0" index="0" allow="bicycle" speed="8.24" length="13.80" width="1.00" shape="3098.82,1107.60 3099.79,1104.30 3101.83,1101.25 3104.53,1098.94 3107.49,1097.90"/>
        <lane id=":17_50_1" index="1" allow="bicycle" speed="8.14" length="13.47" width="1.00" shape="3098.82,1107.60 3099.63,1104.03 3101.33,1101.39 3103.92,1099.69 3107.41,1098.91"/>
    </edge>
    <edge id=":18_0" function="internal">
        <lane id=":18_0_0" index="0" allow="private bus" speed="5.81" length="6.98" shape="4095.20,1110.45 4095.02,1107.98 4094.50,1106.21 4093.62,1105.15 4092.39,1104.80"/>
        <lane id=":18_0_1" index="1" allow="private bus" speed="6.79" length="9.92" shape="4095.20,1110.45 4095.02,1106.58 4094.50,1103.81 4093.62,1102.15 4092.39,1101.60"/>
    </edge>
    <edge id=":18_2" function="internal">
        <lane id=":18_2_0" index="0" allow="private bus" speed="13.89" length="20.38" shape="4095.20,1110.45 4095.20,1090.37"/>
        <lane id=":18_2_1" index="1" allow="private bus" speed="13.89" length="20.38" shape="4095.20,1110.45 4095.70,1104.45 4096.80,1100.27 4097.90,1096.08 4098.40,1090.09"/>
    </edge>
    <edge id=":18_4" function="internal">
        <lane id=":18_4_0" index="0" allow="private bus" speed="9.09" length="18.61" shape="4098.40,1110.19 4099.18,1105.38 4101.24,1100.50 4104.15,1096.72 4107.49,1095.20"/>
        <lane id=":18_4_1" index="1" allow="private bus" speed="8.46" length="15.99" shape="4098.40,1110.19 4099.18,1106.26 4101.24,1102.43 4104.15,1099.54 4107.49,1098.40"/>
    </edge>
    <edge id=":18_6" function="internal">
        <lane id=":18_6_0" index="0" allow="pedestrian" speed="13.89" length="15.14" width="1.00" shape="4107.49,1103.08 4103.01,1102.76 4099.94,1102.66 4096.86,1102.79 4092.39,1103.16"/>
    </edge>
    <edge id=":18_7" function="internal">
        <lane id=":18_7_0" index="0" allow="bicycle" speed="6.51" length="10.96" width="1.00" shape="4107.49,1102.08 4104.98,1102.40 4103.28,1103.80 4102.40,1106.30 4102.34,1109.88"/>
        <lane id=":18_7_1" index="1" allow="bicycle" speed="6.75" length="11.81" width="1.00" shape="4107.49,1102.08 4104.54,1102.37 4102.53,1103.79 4101.46,1106.31 4101.35,1109.96"/>
    </edge>
    <edge id=":18_9" function="internal">
        <lane id=":18_9_0" index="0" allow="bicycle" speed="13.89" length="15.16" width="1.00" shape="4107.49,1102.08 4103.01,1101.76 4099.94,1101.66 4096.86,1101.79 4092.39,1102.16"/>
        <lane id=":18_9_1" index="1" allow="bicycle" speed="13.89" length="15.16" width="1.00" shape="4107.49,1102.08 4103.01,1101.60 4099.94,1101.16 4096.87,1100.94 4092.39,1101.15"/>
    </edge>
    <edge id=":18_11" function="internal">
        <lane id=":18_11_0" index="0" allow="bicycle" speed="8.93" length="8.27" width="1.00" shape="4107.49,1101.08 4103.51,1100.14 4100.53,1098.00 4100.27,1097.56"/>
        <lane id=":18_11_1" index="1" allow="bicycle" speed="8.75" length="6.54" width="1.00" shape="4107.49,1101.08 4103.95,1100.16 4101.70,1098.35"/>
    </edge>
    <edge id=":18_52" function="internal">
        <lane id=":18_52_0" index="0" allow="bicycle" speed="8.93" length="7.97" width="1.00" shape="4100.27,1097.56 4098.55,1094.68 4097.58,1090.16"/>
        <lane id=":18_52_1" index="0" allow="bicycle" speed="8.75" length="9.02" width="1.00" shape="4101.70,1098.35 4101.29,1098.02 4099.49,1094.66 4098.57,1090.07"/>
    </edge>
    <edge id=":18_13" function="internal">
        <lane id=":18_13_0" index="0" allow="private bus" speed="5.52" length="6.21" shape="4107.49,1104.80 4106.31,1105.11 4105.47,1106.02 4104.97,1107.55 4104.80,1109.68"/>
        <lane id=":18_13_1" index="1" allow="private bus" speed="6.47" length="8.90" shape="4107.49,1104.80 4104.91,1105.12 4103.07,1106.08 4101.97,1107.69 4101.60,1109.94"/>
    </edge>
    <edge id=":18_15" function="internal">
        <lane id=":18_15_0" index="0" allow="private bus" speed="13.89" length="15.33" shape="4107.49,1104.80 4092.39,1104.80"/>
        <lane id=":18_15_1" index="1" allow="private bus" speed="13.89" length="15.33" shape="4107.49,1104.80 4102.96,1104.30 4099.94,1103.20 4096.92,1102.10 4092.39,1101.60"/>
    </edge>
    <edge id=":18_17" function="internal">
        <lane id=":18_17_0" index="0" allow="private bus" speed="8.94" length="6.00" shape="4107.49,1101.60 4103.23,1100.63 4101.86,1099.74"/>
        <lane id=":18_17_1" index="1" allow="private bus" speed="8.40" length="15.76" shape="4107.49,1101.60 4104.15,1100.49 4101.24,1097.68 4099.18,1093.95 4098.40,1090.09"/>
    </edge>
    <edge id=":18_53" function="internal">
        <lane id=":18_53_0" index="0" allow="private bus" speed="8.94" length="11.98" shape="4101.86,1099.74 4099.26,1098.07 4096.34,1094.47 4095.20,1090.37"/>
    </edge>
    <edge id=":18_19" function="internal">
        <lane id=":18_19_0" index="0" allow="pedestrian" speed="13.89" length="20.18" width="1.00" shape="4103.29,1089.66 4102.86,1095.63 4102.71,1099.73 4102.87,1103.83 4103.34,1109.80"/>
    </edge>
    <edge id=":18_20" function="internal">
        <lane id=":18_20_0" index="0" allow="bicycle" speed="6.61" length="11.28" width="1.00" shape="4102.28,1089.75 4102.36,1093.48 4103.26,1096.08 4104.97,1097.55 4107.49,1097.87"/>
        <lane id=":18_20_1" index="1" allow="bicycle" speed="6.85" length="12.14" width="1.00" shape="4102.28,1089.75 4102.33,1093.93 4103.20,1096.84 4104.90,1098.49 4107.42,1098.88"/>
    </edge>
    <edge id=":18_22" function="internal">
        <lane id=":18_22_0" index="0" allow="bicycle" speed="13.89" length="20.23" width="1.00" shape="4102.28,1089.75 4101.85,1095.71 4101.71,1099.81 4101.87,1103.91 4102.34,1109.88"/>
        <lane id=":18_22_1" index="1" allow="bicycle" speed="13.89" length="20.23" width="1.00" shape="4102.28,1089.75 4101.69,1095.74 4101.21,1099.85 4101.02,1103.96 4101.35,1109.96"/>
    </edge>
    <edge id=":18_24" function="internal">
        <lane id=":18_24_0" index="0" allow="bicycle" speed="9.01" length="16.66" width="1.00" shape="4101.27,1089.83 4100.38,1094.97 4098.61,1098.73 4095.94,1101.13 4092.39,1102.16"/>
        <lane id=":18_24_1" index="1" allow="bicycle" speed="8.79" length="15.83" width="1.00" shape="4101.27,1089.83 4100.41,1094.53 4098.65,1097.98 4095.97,1100.19 4092.39,1101.15"/>
    </edge>
    <edge id=":18_26" function="internal">
        <lane id=":18_26_0" index="0" allow="private bus" speed="5.79" length="6.92" shape="4104.80,1089.52 4104.97,1092.01 4105.47,1093.78 4106.31,1094.85 4107.49,1095.20"/>
        <lane id=":18_26_1" index="1" allow="private bus" speed="6.77" length="9.87" shape="4104.80,1089.52 4104.97,1093.41 4105.47,1096.18 4106.31,1097.85 4107.49,1098.40"/>
    </edge>
    <edge id=":18_28" function="internal">
        <lane id=":18_28_0" index="0" allow="private bus" speed="13.89" length="20.45" shape="4104.80,1089.52 4104.80,1109.68"/>
        <lane id=":18_28_1" index="1" allow="private bus" speed="13.89" length="20.45" shape="4104.80,1089.52 4104.30,1095.52 4103.20,1099.73 4102.10,1103.93 4101.60,1109.94"/>
    </edge>
    <edge id=":18_30" function="internal">
        <lane id=":18_30_0" index="0" allow="private bus" speed="9.11" length="18.69" shape="4101.60,1089.81 4100.81,1094.62 4098.72,1099.50 4095.77,1103.28 4092.39,1104.80"/>
        <lane id=":18_30_1" index="1" allow="private bus" speed="8.48" length="16.08" shape="4101.60,1089.81 4100.81,1093.75 4098.72,1097.57 4095.77,1100.46 4092.39,1101.60"/>
    </edge>
    <edge id=":18_32" function="internal">
        <lane id=":18_32_0" index="0" allow="pedestrian" speed="13.89" length="15.14" width="1.00" shape="4092.39,1096.88 4096.86,1097.22 4099.94,1097.34 4103.02,1097.22 4107.49,1096.87"/>
    </edge>
    <edge id=":18_33" function="internal">
        <lane id=":18_33_0" index="0" allow="bicycle" speed="6.49" length="10.97" width="1.00" shape="4092.39,1097.88 4094.94,1097.58 4096.66,1096.19 4097.54,1093.72 4097.58,1090.16"/>
        <lane id=":18_33_1" index="1" allow="bicycle" speed="6.73" length="11.83" width="1.00" shape="4092.39,1097.88 4095.39,1097.61 4097.42,1096.21 4098.48,1093.70 4098.57,1090.07"/>
    </edge>
    <edge id=":18_35" function="internal">
        <lane id=":18_35_0" index="0" allow="bicycle" speed="13.89" length="15.12" width="1.00" shape="4092.39,1097.88 4096.86,1098.22 4099.94,1098.34 4103.01,1098.22 4107.49,1097.87"/>
        <lane id=":18_35_1" index="1" allow="bicycle" speed="13.89" length="15.12" width="1.00" shape="4092.39,1097.88 4096.85,1098.38 4099.90,1098.84 4102.96,1099.07 4107.42,1098.88"/>
    </edge>
    <edge id=":18_37" function="internal">
        <lane id=":18_37_0" index="0" allow="bicycle" speed="8.94" length="8.37" width="1.00" shape="4092.39,1098.89 4096.42,1099.85 4099.42,1102.00 4099.69,1102.45"/>
        <lane id=":18_37_1" index="1" allow="bicycle" speed="8.76" length="6.76" width="1.00" shape="4092.39,1098.89 4095.97,1099.82 4098.35,1101.73"/>
    </edge>
    <edge id=":18_54" function="internal">
        <lane id=":18_54_0" index="0" allow="bicycle" speed="8.94" length="7.99" width="1.00" shape="4099.69,1102.45 4101.40,1105.34 4102.34,1109.88"/>
        <lane id=":18_54_1" index="0" allow="bicycle" speed="8.76" length="8.91" width="1.00" shape="4098.35,1101.73 4098.66,1101.98 4100.46,1105.36 4101.35,1109.96"/>
    </edge>
    <edge id=":18_39" function="internal">
        <lane id=":18_39_0" index="0" allow="private bus" speed="5.54" length="6.25" shape="4092.39,1095.20 4093.62,1094.90 4094.50,1093.99 4095.02,1092.48 4095.20,1090.37"/>
        <lane id=":18_39_1" index="1" allow="private bus" speed="6.49" length="8.98" shape="4092.39,1095.20 4095.02,1094.88 4096.90,1093.92 4098.02,1092.32 4098.40,1090.09"/>
    </edge>
    <edge id=":18_41" function="internal">
        <lane id=":18_41_0" index="0" allow="private bus" speed="13.89" length="15.33" shape="4092.39,1095.20 4107.49,1095.20"/>
        <lane id=":18_41_1" index="1" allow="private bus" speed="13.89" length="15.33" shape="4092.39,1095.20 4096.92,1095.70 4099.94,1096.80 4102.96,1097.90 4107.49,1098.40"/>
    </edge>
    <edge id=":18_43" function="internal">
        <lane id=":18_43_0" index="0" allow="private bus" speed="8.97" length="8.96" shape="4092.39,1098.40 4096.68,1099.38 4100.51,1101.83"/>
        <lane id=":18_43_1" index="1" allow="private bus" speed="8.43" length="15.87" shape="4092.39,1098.40 4095.77,1099.51 4098.72,1102.32 4100.81,1106.06 4101.60,1109.94"/>
    </edge>
    <edge id=":18_55" function="internal">
        <lane id=":18_55_0" index="0" allow="private bus" speed="8.97" length="9.16" shape="4100.51,1101.83 4100.69,1101.94 4103.65,1105.56 4104.80,1109.68"/>
    </edge>
    <edge id=":18_45" function="internal">
        <lane id=":18_45_0" index="0" allow="pedestrian" speed="13.89" length="20.15" width="1.00" shape="4096.52,1110.34 4097.05,1104.39 4097.25,1100.30 4097.10,1096.20 4096.58,1090.25"/>
    </edge>
    <edge id=":18_46" function="internal">
        <lane id=":18_46_0" index="0" allow="bicycle" speed="6.57" length="11.29" width="1.00" shape="4097.53,1110.26 4097.51,1106.52 4096.65,1103.93 4094.94,1102.47 4092.39,1102.16"/>
        <lane id=":18_46_1" index="1" allow="bicycle" speed="6.82" length="12.21" width="1.00" shape="4097.53,1110.26 4097.55,1106.08 4096.70,1103.17 4094.98,1101.53 4092.39,1101.15"/>
    </edge>
    <edge id=":18_48" function="internal">
        <lane id=":18_48_0" index="0" allow="bicycle" speed="13.89" length="20.15" width="1.00" shape="4097.53,1110.26 4098.06,1104.31 4098.26,1100.21 4098.10,1096.12 4097.58,1090.16"/>
        <lane id=":18_48_1" index="1" allow="bicycle" speed="13.89" length="20.28" width="1.00" shape="4097.53,1110.26 4098.22,1104.28 4098.76,1100.17 4098.94,1096.06 4098.57,1090.07"/>
    </edge>
    <edge id=":18_50" function="internal">
        <lane id=":18_50_0" index="0" allow="bicycle" speed="9.07" length="16.64" width="1.00" shape="4098.54,1110.18 4099.51,1105.04 4101.33,1101.28 4103.99,1098.89 4107.49,1097.87"/>
        <lane id=":18_50_1" index="1" allow="bicycle" speed="8.83" length="15.75" width="1.00" shape="4098.54,1110.18 4099.47,1105.48 4101.26,1102.03 4103.91,1099.83 4107.42,1098.88"/>
    </edge>
    <edge id=":19_0" function="internal">
        <lane id=":19_0_0" index="0" allow="private bus" speed="5.79" length="6.94" shape="5095.20,1110.46 5095.03,1107.98 5094.51,1106.21 5093.65,1105.15 5092.45,1104.80"/>
        <lane id=":19_0_1" index="1" allow="private bus" speed="6.78" length="9.89" shape="5095.20,1110.46 5095.03,1106.58 5094.51,1103.81 5093.65,1102.15 5092.45,1101.60"/>
    </edge>
    <edge id=":19_2" function="internal">
        <lane id=":19_2_0" index="0" allow="private bus" speed="13.89" length="17.95" shape="5095.20,1110.46 5095.20,1092.81"/>