<?xml version="1.0" encoding="UTF-8"?>

<!-- generated on 2025-11-26 16:20:06 by Eclipse SUMO netconvert Version 1.24.0
<netconvertConfiguration xmlns:xsi="http://www.w3.org/2001/XMLSchema-instance" xsi:noNamespaceSchemaLocation="http://sumo.dlr.de/xsd/netconvertConfiguration.xsd">

    <input>
        <node-files value="common.nod.xml"/>
        <edge-files value="common.edg.xml"/>
        <connection-files value="common.con.xml"/>
    </input>

    <output>
        <output-file value="common.net.xml"/>
    </output>

</netconvertConfiguration>
-->

<net version="1.20" junctionCornerDetail="5" limitTurnSpeed="5.50" xmlns:xsi="http://www.w3.org/2001/XMLSchema-instance" xsi:noNamespaceSchemaLocation="http://sumo.dlr.de/xsd/net_file.xsd">

    <location netOffset="1100.00,1100.00" convBoundary="0.00,0.00,6200.00,2200.00" origBoundary="-1100.00,-1100.00,5100.00,1100.00" projParameter="!"/>

    <edge id=":1_0" function="internal">
        <lane id=":1_0_0" index="0" speed="13.89" length="0.10" shape="100.00,1101.60 100.00,1101.60"/>
    </edge>
    <edge id=":1_1" function="internal">
        <lane id=":1_1_0" index="0" speed="13.89" length="0.10" shape="100.00,1098.40 100.00,1098.40"/>
    </edge>
    <edge id=":10_0" function="internal">
        <lane id=":10_0_0" index="0" speed="13.89" length="8.40" shape="1095.20,999.00 1095.70,996.54 1096.80,995.00 1097.90,993.46 1098.40,991.00"/>
        <lane id=":10_0_1" index="1" speed="13.89" length="8.40" shape="1098.40,999.00 1098.40,991.00"/>
    </edge>
    <edge id=":10_2" function="internal">
        <lane id=":10_2_0" index="0" speed="13.89" length="8.40" shape="1101.60,991.00 1102.10,993.46 1103.20,995.00 1104.30,996.54 1104.80,999.00"/>
        <lane id=":10_2_1" index="1" speed="13.89" length="8.40" shape="1101.60,991.00 1101.60,999.00"/>
    </edge>
    <edge id=":11_0" function="internal">
        <lane id=":11_0_0" index="0" speed="13.89" length="8.40" shape="1098.40,1209.00 1097.90,1206.54 1096.80,1205.00 1095.70,1203.46 1095.20,1201.00"/>
        <lane id=":11_0_1" index="1" speed="13.89" length="8.40" shape="1098.40,1209.00 1098.40,1201.00"/>
    </edge>
    <edge id=":11_2" function="internal">
        <lane id=":11_2_0" index="0" speed="13.89" length="8.40" shape="1104.80,1201.00 1104.30,1203.46 1103.20,1205.00 1102.10,1206.54 1101.60,1209.00"/>
        <lane id=":11_2_1" index="1" speed="13.89" length="8.40" shape="1101.60,1201.00 1101.60,1209.00"/>
    </edge>
    <edge id=":12_0" function="internal">
        <lane id=":12_0_0" index="0" speed="13.89" length="0.10" shape="1098.40,2100.00 1098.40,2100.00"/>
    </edge>
    <edge id=":12_1" function="internal">
        <lane id=":12_1_0" index="0" speed="13.89" length="0.10" shape="1101.60,2100.00 1101.60,2100.00"/>
    </edge>
    <edge id=":13_0" function="internal">
        <lane id=":13_0_0" index="0" speed="13.89" length="0.10" shape="2098.40,100.00 2098.40,100.00"/>
    </edge>
    <edge id=":13_1" function="internal">
        <lane id=":13_1_0" index="0" speed="13.89" length="0.10" shape="2101.60,100.00 2101.60,100.00"/>
    </edge>
    <edge id=":14_0" function="internal">
        <lane id=":14_0_0" index="0" speed="13.89" length="8.40" shape="2095.20,999.00 2095.70,996.54 2096.80,995.00 2097.90,993.46 2098.40,991.00"/>
        <lane id=":14_0_1" index="1" speed="13.89" length="8.40" shape="2098.40,999.00 2098.40,991.00"/>
    </edge>
    <edge id=":14_2" function="internal">
        <lane id=":14_2_0" index="0" speed="13.89" length="8.40" shape="2101.60,991.00 2102.10,993.46 2103.20,995.00 2104.30,996.54 2104.80,999.00"/>
        <lane id=":14_2_1" index="1" speed="13.89" length="8.40" shape="2101.60,991.00 2101.60,999.00"/>
    </edge>
    <edge id=":15_0" function="internal">
        <lane id=":15_0_0" index="0" speed="13.89" length="8.40" shape="2098.40,1209.00 2097.90,1206.54 2096.80,1205.00 2095.70,1203.46 2095.20,1201.00"/>
        <lane id=":15_0_1" index="1" speed="13.89" length="8.40" shape="2098.40,1209.00 2098.40,1201.00"/>
    </edge>
    <edge id=":15_2" function="internal">
        <lane id=":15_2_0" index="0" speed="13.89" length="8.40" shape="2104.80,1201.00 2104.30,1203.46 2103.20,1205.00 2102.10,1206.54 2101.60,1209.00"/>
        <lane id=":15_2_1" index="1" speed="13.89" length="8.40" shape="2101.60,1201.00 2101.60,1209.00"/>
    </edge>
    <edge id=":16_0" function="internal">
        <lane id=":16_0_0" index="0" speed="13.89" length="0.10" shape="2098.40,2100.00 2098.40,2100.00"/>
    </edge>
    <edge id=":16_1" function="internal">
        <lane id=":16_1_0" index="0" speed="13.89" length="0.10" shape="2101.60,2100.00 2101.60,2100.00"/>
    </edge>
    <edge id=":17_0" function="internal">
        <lane id=":17_0_0" index="0" speed="13.89" length="24.00" shape="3095.20,1113.60 3095.20,1089.60"/>
    </edge>
    <edge id=":17_1" function="internal">
        <lane id=":17_1_0" index="0" speed="9.26" length="5.01" shape="3098.40,1113.60 3097.69,1108.64"/>
    </edge>
    <edge id=":17_2" function="internal">
        <lane id=":17_2_0" index="0" speed="13.89" length="24.00" shape="3098.40,1113.60 3098.40,1089.60"/>
    </edge>
    <edge id=":17_3" function="internal">
        <lane id=":17_3_0" index="0" speed="10.36" length="5.01" shape="3098.40,1113.60 3099.11,1108.64"/>
    </edge>
    <edge id=":17_36" function="internal">
        <lane id=":17_36_0" index="0" speed="9.26" length="14.34" shape="3097.69,1108.64 3097.65,1108.35 3095.40,1104.60 3091.65,1102.35 3086.40,1101.60"/>
    </edge>
    <edge id=":17_37" function="internal">
        <lane id=":17_37_0" index="0" speed="10.36" length="19.50" shape="3099.11,1108.64 3099.35,1106.95 3102.20,1102.20 3106.95,1099.35 3113.60,1098.40"/>
    </edge>
    <edge id=":17_4" function="internal">
        <lane id=":17_4_0" index="0" speed="13.89" length="24.00" shape="3092.00,1113.60 3092.00,1089.60"/>
        <lane id=":17_4_1" index="1" speed="13.89" length="24.00" shape="3095.20,1113.60 3095.20,1089.60"/>
    </edge>
    <edge id=":17_6" function="internal">
        <lane id=":17_6_0" index="0" speed="9.26" length="5.01" shape="3098.40,1113.60 3097.69,1108.64"/>
    </edge>
    <edge id=":17_7" function="internal">
        <lane id=":17_7_0" index="0" speed="13.89" length="24.00" shape="3098.40,1113.60 3098.40,1089.60"/>
    </edge>
    <edge id=":17_8" function="internal">
        <lane id=":17_8_0" index="0" speed="10.10" length="2.96" shape="3098.40,1113.60 3099.13,1110.73"/>
    </edge>
    <edge id=":17_38" function="internal">
        <lane id=":17_38_0" index="0" speed="9.26" length="14.34" shape="3097.69,1108.64 3097.65,1108.35 3095.40,1104.60 3091.65,1102.35 3086.40,1101.60"/>
    </edge>
    <edge id=":17_39" function="internal">
        <lane id=":17_39_0" index="0" speed="10.10" length="20.25" shape="3099.13,1110.73 3099.77,1108.20 3103.31,1103.31 3108.20,1099.77 3113.60,1098.40"/>
    </edge>
    <edge id=":17_9" function="internal">
        <lane id=":17_9_0" index="0" speed="13.89" length="27.20" shape="3113.60,1108.00 3086.40,1108.00"/>
        <lane id=":17_9_1" index="1" speed="13.89" length="27.20" shape="3113.60,1104.80 3086.40,1104.80"/>
    </edge>
    <edge id=":17_11" function="internal">
        <lane id=":17_11_0" index="0" speed="9.26" length="5.01" shape="3113.60,1101.60 3108.64,1102.31"/>
    </edge>
    <edge id=":17_12" function="internal">
        <lane id=":17_12_0" index="0" speed="13.89" length="27.20" shape="3113.60,1101.60 3086.40,1101.60"/>
    </edge>
    <edge id=":17_13" function="internal">
        <lane id=":17_13_0" index="0" speed="9.84" length="6.30" shape="3113.60,1101.60 3107.34,1100.89"/>
    </edge>
    <edge id=":17_40" function="internal">
        <lane id=":17_40_0" index="0" speed="9.26" length="14.34" shape="3108.64,1102.31 3108.35,1102.35 3104.60,1104.60 3102.35,1108.35 3101.60,1113.60"/>
    </edge>
    <edge id=":17_41" function="internal">
        <lane id=":17_41_0" index="0" speed="9.84" length="15.70" shape="3107.34,1100.89 3106.95,1100.85 3102.20,1098.60 3099.35,1094.85 3098.40,1089.60"/>
    </edge>
    <edge id=":17_14" function="internal">
        <lane id=":17_14_0" index="0" speed="13.89" length="27.20" shape="3113.60,1104.80 3086.40,1104.80"/>
    </edge>
    <edge id=":17_15" function="internal">
        <lane id=":17_15_0" index="0" speed="9.26" length="5.01" shape="3113.60,1101.60 3108.64,1102.31"/>
    </edge>
    <edge id=":17_16" function="internal">
        <lane id=":17_16_0" index="0" speed="13.89" length="27.20" shape="3113.60,1101.60 3086.40,1101.60"/>
    </edge>
    <edge id=":17_17" function="internal">
        <lane id=":17_17_0" index="0" speed="9.58" length="3.62" shape="3113.60,1101.60 3110.05,1100.88"/>
    </edge>
    <edge id=":17_42" function="internal">
        <lane id=":17_42_0" index="0" speed="9.26" length="14.34" shape="3108.64,1102.31 3108.35,1102.35 3104.60,1104.60 3102.35,1108.35 3101.60,1113.60"/>
    </edge>
    <edge id=":17_43" function="internal">
        <lane id=":17_43_0" index="0" speed="9.58" length="17.19" shape="3110.05,1100.88 3108.50,1100.57 3103.58,1097.85 3099.87,1094.01 3098.40,1089.60"/>
    </edge>
    <edge id=":17_18" function="internal">
        <lane id=":17_18_0" index="0" speed="13.89" length="24.00" shape="3104.80,1089.60 3104.80,1113.60"/>
    </edge>
    <edge id=":17_19" function="internal">
        <lane id=":17_19_0" index="0" speed="8.67" length="3.71" shape="3101.60,1089.60 3102.31,1093.24"/>
    </edge>
    <edge id=":17_20" function="internal">
        <lane id=":17_20_0" index="0" speed="13.89" length="24.00" shape="3101.60,1089.60 3101.60,1113.60"/>
    </edge>
    <edge id=":17_21" function="internal">
        <lane id=":17_21_0" index="0" speed="9.84" length="4.01" shape="3101.60,1089.60 3100.89,1093.55"/>
    </edge>
    <edge id=":17_44" function="internal">
        <lane id=":17_44_0" index="0" speed="8.67" length="13.14" shape="3102.31,1093.24 3102.35,1093.45 3104.60,1096.20 3108.35,1097.85 3113.60,1098.40"/>
    </edge>
    <edge id=":17_45" function="internal">
        <lane id=":17_45_0" index="0" speed="9.84" length="17.98" shape="3100.89,1093.55 3100.65,1094.85 3097.80,1098.60 3093.05,1100.85 3086.40,1101.60"/>
    </edge>
    <edge id=":17_22" function="internal">
        <lane id=":17_22_0" index="0" speed="13.89" length="24.00" shape="3108.00,1089.60 3108.00,1113.60"/>
        <lane id=":17_22_1" index="1" speed="13.89" length="24.00" shape="3104.80,1089.60 3104.80,1113.60"/>
    </edge>
    <edge id=":17_24" function="internal">
        <lane id=":17_24_0" index="0" speed="8.67" length="3.71" shape="3101.60,1089.60 3102.31,1093.24"/>
    </edge>
    <edge id=":17_25" function="internal">
        <lane id=":17_25_0" index="0" speed="13.89" length="24.00" shape="3101.60,1089.60 3101.60,1113.60"/>
    </edge>
    <edge id=":17_26" function="internal">
        <lane id=":17_26_0" index="0" speed="9.84" length="4.01" shape="3101.60,1089.60 3100.89,1093.55"/>
    </edge>
    <edge id=":17_46" function="internal">
        <lane id=":17_46_0" index="0" speed="8.67" length="13.14" shape="3102.31,1093.24 3102.35,1093.45 3104.60,1096.20 3108.35,1097.85 3113.60,1098.40"/>
    </edge>
    <edge id=":17_47" function="internal">
        <lane id=":17_47_0" index="0" speed="9.84" length="17.98" shape="3100.89,1093.55 3100.65,1094.85 3097.80,1098.60 3093.05,1100.85 3086.40,1101.60"/>
    </edge>
    <edge id=":17_27" function="internal">
        <lane id=":17_27_0" index="0" speed="13.89" length="27.20" shape="3086.40,1095.20 3113.60,1095.20"/>
    </edge>
    <edge id=":17_28" function="internal">
        <lane id=":17_28_0" index="0" speed="8.67" length="5.56" shape="3086.40,1098.40 3091.65,1097.85 3091.91,1097.74"/>
    </edge>
    <edge id=":17_29" function="internal">
        <lane id=":17_29_0" index="0" speed="13.89" length="27.20" shape="3086.40,1098.40 3113.60,1098.40"/>
    </edge>
    <edge id=":17_30" function="internal">
        <lane id=":17_30_0" index="0" speed="10.36" length="5.01" shape="3086.40,1098.40 3091.36,1099.11"/>
    </edge>
    <edge id=":17_48" function="internal">
        <lane id=":17_48_0" index="0" speed="8.67" length="11.29" shape="3091.91,1097.74 3095.40,1096.20 3097.65,1093.45 3098.40,1089.60"/>
    </edge>
    <edge id=":17_49" function="internal">
        <lane id=":17_49_0" index="0" speed="10.36" length="19.50" shape="3091.36,1099.11 3093.05,1099.35 3097.80,1102.20 3100.65,1106.95 3101.60,1113.60"/>
    </edge>
    <edge id=":17_31" function="internal">
        <lane id=":17_31_0" index="0" speed="13.89" length="27.20" shape="3086.40,1092.00 3113.60,1092.00"/>
        <lane id=":17_31_1" index="1" speed="13.89" length="27.20" shape="3086.40,1095.20 3113.60,1095.20"/>
    </edge>
    <edge id=":17_33" function="internal">
        <lane id=":17_33_0" index="0" speed="8.67" length="5.56" shape="3086.40,1098.40 3091.65,1097.85 3091.91,1097.74"/>
    </edge>
    <edge id=":17_34" function="internal">
        <lane id=":17_34_0" index="0" speed="13.89" length="27.20" shape="3086.40,1098.40 3113.60,1098.40"/>
    </edge>
    <edge id=":17_35" function="internal">
        <lane id=":17_35_0" index="0" speed="10.36" length="5.01" shape="3086.40,1098.40 3091.36,1099.11"/>
    </edge>
    <edge id=":17_50" function="internal">
        <lane id=":17_50_0" index="0" speed="8.67" length="11.29" shape="3091.91,1097.74 3095.40,1096.20 3097.65,1093.45 3098.40,1089.60"/>
    </edge>
    <edge id=":17_51" function="internal">
        <lane id=":17_51_0" index="0" speed="10.36" length="19.50" shape="3091.36,1099.11 3093.05,1099.35 3097.80,1102.20 3100.65,1106.95 3101.60,1113.60"/>
    </edge>
    <edge id=":18_0" function="internal">
        <lane id=":18_0_0" index="0" speed="13.89" length="27.20" shape="4095.20,1113.60 4095.20,1086.40"/>
    </edge>
    <edge id=":18_1" function="internal">
        <lane id=":18_1_0" index="0" speed="9.26" length="5.01" shape="4098.40,1113.60 4097.69,1108.64"/>
    </edge>
    <edge id=":18_2" function="internal">
        <lane id=":18_2_0" index="0" speed="13.89" length="27.20" shape="4098.40,1113.60 4098.40,1086.40"/>
    </edge>
    <edge id=":18_3" function="internal">
        <lane id=":18_3_0" index="0" speed="10.36" length="5.01" shape="4098.40,1113.60 4099.11,1108.64"/>
    </edge>
    <edge id=":18_36" function="internal">
        <lane id=":18_36_0" index="0" speed="9.26" length="14.34" shape="4097.69,1108.64 4097.65,1108.35 4095.40,1104.60 4091.65,1102.35 4086.40,1101.60"/>
    </edge>
    <edge id=":18_37" function="internal">
        <lane id=":18_37_0" index="0" speed="10.36" length="19.50" shape="4099.11,1108.64 4099.35,1106.95 4102.20,1102.20 4106.95,1099.35 4113.60,1098.40"/>
    </edge>
    <edge id=":18_4" function="internal">
        <lane id=":18_4_0" index="0" speed="13.89" length="27.20" shape="4092.00,1113.60 4092.00,1086.40"/>
        <lane id=":18_4_1" index="1" speed="13.89" length="27.20" shape="4095.20,1113.60 4095.20,1086.40"/>
    </edge>
    <edge id=":18_6" function="internal">
        <lane id=":18_6_0" index="0" speed="9.26" length="5.01" shape="4098.40,1113.60 4097.69,1108.64"/>
    </edge>
    <edge id=":18_7" function="internal">
        <lane id=":18_7_0" index="0" speed="13.89" length="27.20" shape="4098.40,1113.60 4098.40,1086.40"/>
    </edge>
    <edge id=":18_8" function="internal">
        <lane id=":18_8_0" index="0" speed="10.10" length="2.96" shape="4098.40,1113.60 4099.13,1110.73"/>
    </edge>
    <edge id=":18_38" function="internal">
        <lane id=":18_38_0" index="0" speed="9.26" length="14.34" shape="4097.69,1108.64 4097.65,1108.35 4095.40,1104.60 4091.65,1102.35 4086.40,1101.60"/>
    </edge>
    <edge id=":18_39" function="internal">
        <lane id=":18_39_0" index="0" speed="10.10" length="20.25" shape="4099.13,1110.73 4099.77,1108.20 4103.31,1103.31 4108.20,1099.77 4113.60,1098.40"/>
    </edge>
    <edge id=":18_9" function="internal">
        <lane id=":18_9_0" index="0" speed="13.89" length="27.20" shape="4113.60,1108.00 4086.40,1108.00"/>
        <lane id=":18_9_1" index="1" speed="13.89" length="27.20" shape="4113.60,1104.80 4086.40,1104.80"/>
    </edge>
    <edge id=":18_11" function="internal">
        <lane id=":18_11_0" index="0" speed="9.26" length="5.01" shape="4113.60,1101.60 4108.64,1102.31"/>
    </edge>
    <edge id=":18_12" function="internal">
        <lane id=":18_12_0" index="0" speed="13.89" length="27.20" shape="4113.60,1101.60 4086.40,1101.60"/>
    </edge>
    <edge id=":18_13" function="internal">
        <lane id=":18_13_0" index="0" speed="10.36" length="5.01" shape="4113.60,1101.60 4108.64,1100.89"/>
    </edge>
    <edge id=":18_40" function="internal">
        <lane id=":18_40_0" index="0" speed="9.26" length="14.34" shape="4108.64,1102.31 4108.35,1102.35 4104.60,1104.60 4102.35,1108.35 4101.60,1113.60"/>
    </edge>
    <edge id=":18_41" function="internal">
        <lane id=":18_41_0" index="0" speed="10.36" length="19.50" shape="4108.64,1100.89 4106.95,1100.65 4102.20,1097.80 4099.35,1093.05 4098.40,1086.40"/>
    </edge>
    <edge id=":18_14" function="internal">
        <lane id=":18_14_0" index="0" speed="13.89" length="27.20" shape="4113.60,1104.80 4086.40,1104.80"/>
    </edge>
    <edge id=":18_15" function="internal">
        <lane id=":18_15_0" index="0" speed="9.26" length="5.01" shape="4113.60,1101.60 4108.64,1102.31"/>
    </edge>
    <edge id=":18_16" function="internal">
        <lane id=":18_16_0" index="0" speed="13.89" length="27.20" shape="4113.60,1101.60 4086.40,1101.60"/>
    </edge>
    <edge id=":18_17" function="internal">
        <lane id=":18_17_0" index="0" speed="10.10" length="2.96" shape="4113.60,1101.60 4110.73,1100.87"/>
    </edge>
    <edge id=":18_42" function="internal">
        <lane id=":18_42_0" index="0" speed="9.26" length="14.34" shape="4108.64,1102.31 4108.35,1102.35 4104.60,1104.60 4102.35,1108.35 4101.60,1113.60"/>
    </edge>
    <edge id=":18_43" function="internal">
        <lane id=":18_43_0" index="0" speed="10.10" length="20.25" shape="4110.73,1100.87 4108.20,1100.23 4103.31,1096.69 4099.77,1091.80 4098.40,1086.40"/>
    </edge>
    <edge id=":18_18" function="internal">
        <lane id=":18_18_0" index="0" speed="13.89" length="27.20" shape="4104.80,1086.40 4104.80,1113.60"/>
    </edge>
    <edge id=":18_19" function="internal">
        <lane id=":18_19_0" index="0" speed="9.26" length="5.01" shape="4101.60,1086.40 4102.31,1091.36"/>
    </edge>
    <edge id=":18_20" function="internal">
        <lane id=":18_20_0" index="0" speed="13.89" length="27.20" shape="4101.60,1086.40 4101.60,1113.60"/>
    </edge>
    <edge id=":18_21" function="internal">
        <lane id=":18_21_0" index="0" speed="10.36" length="5.01" shape="4101.60,1086.40 4100.89,1091.36"/>
    </edge>
    <edge id=":18_44" function="internal">
        <lane id=":18_44_0" index="0" speed="9.26" length="14.34" shape="4102.31,1091.36 4102.35,1091.65 4104.60,1095.40 4108.35,1097.65 4113.60,1098.40"/>
    </edge>
    <edge id=":18_45" function="internal">
        <lane id=":18_45_0" index="0" speed="10.36" length="19.50" shape="4100.89,1091.36 4100.65,1093.05 4097.80,1097.80 4093.05,1100.65 4086.40,1101.60"/>
    </edge>
    <edge id=":18_22" function="internal">
        <lane id=":18_22_0" index="0" speed="13.89" length="27.20" shape="4108.00,1086.40 4108.00,1113.60"/>
        <lane id=":18_22_1" index="1" speed="13.89" length="27.20" shape="4104.80,1086.40 4104.80,1113.60"/>
    </edge>
    <edge id=":18_24" function="internal">
        <lane id=":18_24_0" index="0" speed="9.26" length="5.01" shape="4101.60,1086.40 4102.31,1091.36"/>
    </edge>
    <edge id=":18_25" function="internal">
        <lane id=":18_25_0" index="0" speed="13.89" length="27.20" shape="4101.60,1086.40 4101.60,1113.60"/>
    </edge>
    <edge id=":18_26" function="internal">
        <lane id=":18_26_0" index="0" speed="10.10" length="5.01" shape="4101.60,1086.40 4100.37,1091.26"/>
    </edge>
    <edge id=":18_46" function="internal">
        <lane id=":18_46_0" index="0" speed="9.26" length="14.34" shape="4102.31,1091.36 4102.35,1091.65 4104.60,1095.40 4108.35,1097.65 4113.60,1098.40"/>
    </edge>
    <edge id=":18_47" function="internal">
        <lane id=":18_47_0" index="0" speed="10.10" length="18.20" shape="4100.37,1091.26 4100.23,1091.80 4096.69,1096.69 4091.80,1100.23 4086.40,1101.60"/>
    </edge>
    <edge id=":18_27" function="internal">
        <lane id=":18_27_0" index="0" speed="13.89" length="27.20" shape="4086.40,1092.00 4113.60,1092.00"/>
        <lane id=":18_27_1" index="1" speed="13.89" length="27.20" shape="4086.40,1095.20 4113.60,1095.20"/>
    </edge>
    <edge id=":18_29" function="internal">
        <lane id=":18_29_0" index="0" speed="9.26" length="5.01" shape="4086.40,1098.40 4091.36,1097.69"/>
    </edge>
    <edge id=":18_30" function="internal">
        <lane id=":18_30_0" index="0" speed="13.89" length="27.20" shape="4086.40,1098.40 4113.60,1098.40"/>
    </edge>
    <edge id=":18_31" function="internal">
        <lane id=":18_31_0" index="0" speed="10.36" length="5.01" shape="4086.40,1098.40 4091.36,1099.11"/>
    </edge>
    <edge id=":18_48" function="internal">
        <lane id=":18_48_0" index="0" speed="9.26" length="14.34" shape="4091.36,1097.69 4091.65,1097.65 4095.40,1095.40 4097.65,1091.65 4098.40,1086.40"/>
    </edge>
    <edge id=":18_49" function="internal">
        <lane id=":18_49_0" index="0" speed="10.36" length="19.50" shape="4091.36,1099.11 4093.05,1099.35 4097.80,1102.20 4100.65,1106.95 4101.60,1113.60"/>
    </edge>
    <edge id=":18_32" function="internal">
        <lane id=":18_32_0" index="0" speed="13.89" length="27.20" shape="4086.40,1095.20 4113.60,1095.20"/>
    </edge>
    <edge id=":18_33" function="internal">
        <lane id=":18_33_0" index="0" speed="9.26" length="5.01" shape="4086.40,1098.40 4091.36,1097.69"/>
    </edge>
    <edge id=":18_34" function="internal">
        <lane id=":18_34_0" index="0" speed="13.89" length="27.20" shape="4086.40,1098.40 4113.60,1098.40"/>
    </edge>
    <edge id=":18_35" function="internal">
        <lane id=":18_35_0" index="0" speed="10.10" length="2.96" shape="4086.40,1098.40 4089.27,1099.13"/>
    </edge>
    <edge id=":18_50" function="internal">
        <lane id=":18_50_0" index="0" speed="9.26" length="14.34" shape="4091.36,1097.69 4091.65,1097.65 4095.40,1095.40 4097.65,1091.65 4098.40,1086.40"/>
    </edge>
    <edge id=":18_51" function="internal">
        <lane id=":18_51_0" index="0" speed="10.10" length="20.25" shape="4089.27,1099.13 4091.80,1099.77 4096.69,1103.31 4100.23,1108.20 4101.60,1113.60"/>
    </edge>
    <edge id=":19_0" function="internal">
        <lane id=":19_0_0" index="0" speed="13.89" length="24.00" shape="5095.20,1110.40 5095.20,1086.40"/>
    </edge>
    <edge id=":19_1" function="internal">
        <lane id=":19_1_0" index="0" speed="8.67" length="3.71" shape="5098.40,1110.40 5097.69,1106.76"/>
    </edge>
    <edge id=":19_2" function="internal">
        <lane id=":19_2_0" index="0" speed="13.89" length="24.00" shape="5098.40,1110.40 5098.40,1086.40"/>
    </edge>
    <edge id=":19_3" function="internal">
        <lane id=":19_3_0" index="0" speed="9.84" length="4.01" shape="5098.40,1110.40 5099.11,1106.45"/>
    </edge>
    <edge id=":19_36" function="internal">
        <lane id=":19_36_0" index="0" speed="8.67" length="13.14" shape="5097.69,1106.76 5097.65,1106.55 5095.40,1103.80 5091.65,1102.15 5086.40,1101.60"/>
    </edge>
    <edge id=":19_37" function="internal">
        <lane id=":19_37_0" index="0" speed="9.84" length="17.98" shape="5099.11,1106.45 5099.35,1105.15 5102.20,1101.40 5106.95,1099.15 5113.60,1098.40"/>
    </edge>
    <edge id=":19_4" function="internal">
        <lane id=":19_4_0" index="0" speed="13.89" length="24.00" shape="5092.00,1110.40 5092.00,1086.40"/>
        <lane id=":19_4_1" index="1" speed="13.89" length="24.00" shape="5095.20,1110.40 5095.20,1086.40"/>
    </edge>
    <edge id=":19_6" function="internal">
        <lane id=":19_6_0" index="0" speed="8.67" length="3.71" shape="5098.40,1110.40 5097.69,1106.76"/>
    </edge>
    <edge id=":19_7" function="internal">
        <lane id=":19_7_0" index="0" speed="13.89" length="24.00" shape="5098.40,1110.40 5098.40,1086.40"/>
    </edge>
    <edge id=":19_8" function="internal">
        <lane id=":19_8_0" index="0" speed="9.84" length="4.01" shape="5098.40,1110.40 5099.11,1106.45"/>
    </edge>
    <edge id=":19_38" function="internal">
        <lane id=":19_38_0" index="0" speed="8.67" length="13.14" shape="5097.69,1106.76 5097.65,1106.55 5095.40,1103.80 5091.65,1102.15 5086.40,1101.60"/>
    </edge>
    <edge id=":19_39" function="internal">
        <lane id=":19_39_0" index="0" speed="9.84" length="17.98" shape="5099.11,1106.45 5099.35,1105.15 5102.20,1101.40 5106.95,1099.15 5113.60,1098.40"/>
    </edge>
    <edge id=":19_9" function="internal">
        <lane id=":19_9_0" index="0" speed="13.89" length="27.20" shape="5113.60,1104.80 5086.40,1104.80"/>
    </edge>
    <edge id=":19_10" function="internal">
        <lane id=":19_10_0" index="0" speed="8.67" length="5.56" shape="5113.60,1101.60 5108.35,1102.15 5108.09,1102.26"/>
    </edge>
    <edge id=":19_11" function="internal">
        <lane id=":19_11_0" index="0" speed="13.89" length="27.20" shape="5113.60,1101.60 5086.40,1101.60"/>
    </edge>
    <edge id=":19_12" function="internal">
        <lane id=":19_12_0" index="0" speed="10.36" length="5.01" shape="5113.60,1101.60 5108.64,1100.89"/>
    </edge>
    <edge id=":19_40" function="internal">
        <lane id=":19_40_0" index="0" speed="8.67" length="11.29" shape="5108.09,1102.26 5104.60,1103.80 5102.35,1106.55 5101.60,1110.40"/>
    </edge>
    <edge id=":19_41" function="internal">
        <lane id=":19_41_0" index="0" speed="10.36" length="19.50" shape="5108.64,1100.89 5106.95,1100.65 5102.20,1097.80 5099.35,1093.05 5098.40,1086.40"/>
    </edge>
    <edge id=":19_13" function="internal">
        <lane id=":19_13_0" index="0" speed="13.89" length="27.20" shape="5113.60,1108.00 5086.40,1108.00"/>
        <lane id=":19_13_1" index="1" speed="13.89" length="27.20" shape="5113.60,1104.80 5086.40,1104.80"/>
    </edge>
    <edge id=":19_15" function="internal">
        <lane id=":19_15_0" index="0" speed="8.67" length="5.56" shape="5113.60,1101.60 5108.35,1102.15 5108.09,1102.26"/>
    </edge>
    <edge id=":19_16" function="internal">
        <lane id=":19_16_0" index="0" speed="13.89" length="27.20" shape="5113.60,1101.60 5086.40,1101.60"/>
    </edge>
    <edge id=":19_17" function="internal">
        <lane id=":19_17_0" index="0" speed="10.36" length="5.01" shape="5113.60,1101.60 5108.64,1100.89"/>
    </edge>
    <edge id=":19_42" function="internal">
        <lane id=":19_42_0" index="0" speed="8.67" length="11.29" shape="5108.09,1102.26 5104.60,1103.80 5102.35,1106.55 5101.60,1110.40"/>
    </edge>
    <edge id=":19_43" function="internal">
        <lane id=":19_43_0" index="0" speed="10.36" length="19.50" shape="5108.64,1100.89 5106.95,1100.65 5102.20,1097.80 5099.35,1093.05 5098.40,1086.40"/>
    </edge>
    <edge id=":19_18" function="internal">
        <lane id=":19_18_0" index="0" speed="13.89" length="24.00" shape="5104.80,1086.40 5104.80,1110.40"/>
    </edge>
    <edge id=":19_19" function="internal">
        <lane id=":19_19_0" index="0" speed="9.26" length="5.01" shape="5101.60,1086.40 5102.31,1091.36"/>
    </edge>
    <edge id=":19_20" function="internal">
        <lane id=":19_20_0" index="0" speed="13.89" length="24.00" shape="5101.60,1086.40 5101.60,1110.40"/>
    </edge>
    <edge id=":19_21" function="internal">
        <lane id=":19_21_0" index="0" speed="10.36" length="5.01" shape="5101.60,1086.40 5100.89,1091.36"/>
    </edge>
    <edge id=":19_44" function="internal">
        <lane id=":19_44_0" index="0" speed="9.26" length="14.34" shape="5102.31,1091.36 5102.35,1091.65 5104.60,1095.40 5108.35,1097.65 5113.60,1098.40"/>
    </edge>
    <edge id=":19_45" function="internal">
        <lane id=":19_45_0" index="0" speed="10.36" length="19.50" shape="5100.89,1091.36 5100.65,1093.05 5097.80,1097.80 5093.05,1100.65 5086.40,1101.60"/>
    </edge>
    <edge id=":19_22" function="internal">
        <lane id=":19_22_0" index="0" speed="13.89" length="24.00" shape="5108.00,1086.40 5108.00,1110.40"/>
        <lane id=":19_22_1" index="1" speed="13.89" length="24.00" shape="5104.80,1086.40 5104.80,1110.40"/>
    </edge>
    <edge id=":19_24" function="internal">
        <lane id=":19_24_0" index="0" speed="9.26" length="5.01" shape="5101.60,1086.40 5102.31,1091.36"/>
    </edge>
    <edge id=":19_25" function="internal">
        <lane id=":19_25_0" index="0" speed="13.89" length="24.00" shape="5101.60,1086.40 5101.60,1110.40"/>
    </edge>
    <edge id=":19_26" function="internal">
        <lane id=":19_26_0" index="0" speed="10.10" length="5.01" shape="5101.60,1086.40 5100.37,1091.26"/>
    </edge>
    <edge id=":19_46" function="internal">
        <lane id=":19_46_0" index="0" speed="9.26" length="14.34" shape="5102.31,1091.36 5102.35,1091.65 5104.60,1095.40 5108.35,1097.65 5113.60,1098.40"/>
    </edge>
    <edge id=":19_47" function="internal">
        <lane id=":19_47_0" index="0" speed="10.10" length="18.20" shape="5100.37,1091.26 5100.23,1091.80 5096.69,1096.69 5091.80,1100.23 5086.40,1101.60"/>
    </edge>
    <edge id=":19_27" function="internal">
        <lane id=":19_27_0" index="0" speed="13.89" length="27.20" shape="5086.40,1092.00 5113.60,1092.00"/>
        <lane id=":19_27_1" index="1" speed="13.89" length="27.20" shape="5086.40,1095.20 5113.60,1095.20"/>
    </edge>
    <edge id=":19_29" function="internal">
        <lane id=":19_29_0" index="0" speed="9.26" length="5.01" shape="5086.40,1098.40 5091.36,1097.69"/>
    </edge>
    <edge id=":19_30" function="internal">