<routes>
        
            <vType id="Berliner" accel="0.8" decel="1.5" sigma="0.5" length="1.6" maxSpeed="5.8" color="255,255,0" guiShape="bicycle" vClass="bicycle" emissionClass="zero"/>  
        
            <route id="1" edges="a_1 1_2 2_3 3_10 10_9 9_c"/>
            <route id="2" edges="a_1 1_2 2_3 3_11 11_12 12_d"/>
            <route id="3" edges="a_1 1_2 2_3 3_4 4_5 5_6 6_14 14_13 13_e"/>
            <route id="4" edges="a_1 1_2 2_3 3_4 4_5 5_6 6_15 15_16 16_f"/>
            <route id="5" edges="a_1 1_2 2_3 3_4 4_5 5_6 6_7 7_8 8_b"/>

            <route id="6" edges="b_8 8_7 7_6 6_15 15_16 16_f"/>
            <route id="7" edges="b_8 8_7 7_6 6_14 14_13 13_e"/>
            <route id="8" edges="b_8 8_7 7_6 6_5 5_4 4_3 3_2 2_1 1_a"/>
            <route id="9" edges="b_8 8_7 7_6 6_5 5_4 4_3 3_11 11_12 12_d"/> 
            <route id="10" edges="b_8 8_7 7_6 6_5 5_4 4_3 3_10 10_9 9_c"/>
            
            <route id="11" edges="d_12 12_11 11_3 3_10 10_9 9_c"/>
            <route id="12" edges="d_12 12_11 11_3  3_2 2_1 1_a "/>
            <route id="13" edges="d_12 12_11 11_3 3_4 4_5 5_6 6_7 7_8 8_b"/>
            <route id="14" edges="d_12 12_11 11_3  3_4 4_5 5_6 6_15 15_16 16_f"/> 
            <route id="15" edges="d_12 12_11 11_3 3_4 4_5 5_6 6_14 14_13 13_e"/>
            
            <route id="16" edges="c_9 9_10 10_3 3_2 2_1 1_a"/>
            <route id="17" edges="c_9 9_10 10_3 3_11 11_12 12_d"/>
            <route id="18" edges="c_9 9_10 10_3 3_4 4_5 5_6 6_15 15_16 16_f"/>
            <route id="19" edges="c_9 9_10 10_3 3_4 4_5 5_6 6_14 14_13 13_e"/> 
            <route id="20" edges="c_9 9_10 10_3 3_4 4_5 5_6 6_7 7_8 8_b"/>
            
            <route id="21" edges="f_16 16_15 15_6 6_7 7_8 8_b"/>
            <route id="22" edges="f_16 16_15 15_6 6_14 14_13 13_e"/>
            <route id="23" edges="f_16 16_15 15_6 6_5 5_4 4_3 3_11 11_12 12_d"/>
            <route id="24" edges="f_16 16_15 15_6 6_5 5_4 4_3 3_10 10_9 9_c"/> 
            <route id="25" edges="f_16 16_15 15_6 6_5 5_4 4_3 3_2 2_1 1_a"/>
            
            <route id="26" edges="e_13 13_14 14_6 6_7 7_8 8_b"/>
            <route id="27" edges="e_13 13_14 14_6 6_15 15_16 16_f"/>
            <route id="28" edges="e_13 13_14 14_6 6_5 5_4 4_3 3_11 11_12 12_d"/>
            <route id="29" edges="e_13 13_14 14_6 6_5 5_4 4_3 3_10 10_9 9_c"/> 
            <route id="30" edges="e_13 13_14 14_6 6_5 5_4 4_3 3_2 2_1 1_a"/>	
                        
        
    <vehicle id="400000" type="Berliner" route="7" depart="0" departLane="free" departSpeed="random" />
    <vehicle id="400001" type="Berliner" route="17" depart="7" departLane="free" departSpeed="random" />
    <vehicle id="400002" type="Berliner" route="8" depart="8" departLane="free" departSpeed="random" />
    <vehicle id="400003" type="Berliner" route="1" depart="12" departLane="free" departSpeed="random" />
    <vehicle id="400004" type="Berliner" route="5" depart="12" departLane="free" departSpeed="random" />
    <vehicle id="400005" type="Berliner" route="27" depart="12" departLane="free" departSpeed="random" />
    <vehicle id="400006" type="Berliner" route="10" depart="14" departLane="free" departSpeed="random" />
    <vehicle id="400007" type="Berliner" route="5" depart="18" departLane="free" departSpeed="random" />
    <vehicle id="400008" type="Berliner" route="22" depart="19" departLane="free" departSpeed="random" />
    <vehicle id="400009" type="Berliner" route="27" depart="19" departLane="free" departSpeed="random" />
    <vehicle id="400010" type="Berliner" route="5" depart="20" departLane="free" departSpeed="random" />
    <vehicle id="400011" type="Berliner" route="1" depart="22" departLane="free" departSpeed="random" />
    <vehicle id="400012" type="Berliner" route="8" depart="22" departLane="free" departSpeed="random" />
    <vehicle id="400013" type="Berliner" route="8" depart="26" departLane="free" departSpeed="random" />
    <vehicle id="400014" type="Berliner" route="8" depart="27" departLane="free" departSpeed="random" />
    <vehicle id="400015" type="Berliner" route="5" depart="29" departLane="free" departSpeed="random" />
    <vehicle id="400016" type="Berliner" route="4" depart="33" departLane="free" departSpeed="random" />
    <vehicle id="400017" type="Berliner" route="5" depart="33" departLane="free" departSpeed="random" />
    <vehicle id="400018" type="Berliner" route="2" depart="34" departLane="free" departSpeed="random" />
    <vehicle id="400019" type="Berliner" route="11" depart="36" departLane="free" departSpeed="random" />
    <vehicle id="400020" type="Berliner" route="5" depart="40" departLane="free" departSpeed="random" />
    <vehicle id="400021" type="Berliner" route="12" depart="40" departLane="free" departSpeed="random" />
    <vehicle id="400022" type="Berliner" route="5" depart="41" departLane="free" departSpeed="random" />
    <vehicle id="400023" type="Berliner" route="8" depart="47" departLane="free" departSpeed="random" />
    <vehicle id="400024" type="Berliner" route="4" depart="50" departLane="free" departSpeed="random" />
    <vehicle id="400025" type="Berliner" route="9" depart="51" departLane="free" departSpeed="random" />
    <vehicle id="400026" type="Berliner" route="10" depart="52" departLane="free" departSpeed="random" />
    <vehicle id="400027" type="Berliner" route="10" depart="53" departLane="free" departSpeed="random" />
    <vehicle id="400028" type="Berliner" route="4" depart="54" departLane="free" departSpeed="random" />
    <vehicle id="400029" type="Berliner" route="3" depart="56" departLane="free" departSpeed="random" />
    <vehicle id="400030" type="Berliner" route="5" depart="56" departLane="free" departSpeed="random" />
    <vehicle id="400031" type="Berliner" route="14" depart="58" departLane="free" departSpeed="random" />
    <vehicle id="400032" type="Berliner" route="16" depart="58" departLane="free" departSpeed="random" />
    <vehicle id="400033" type="Berliner" route="11" depart="60" departLane="free" departSpeed="random" />
    <vehicle id="400034" type="Berliner" route="22" depart="61" departLane="free" departSpeed="random" />
    <vehicle id="400035" type="Berliner" route="5" depart="65" departLane="free" departSpeed="random" />
    <vehicle id="400036" type="Berliner" route="17" depart="68" departLane="free" departSpeed="random" />
    <vehicle id="400037" type="Berliner" route="12" depart="72" departLane="free" departSpeed="random" />
    <vehicle id="400038" type="Berliner" route="1" depart="74" departLane="free" departSpeed="random" />
    <vehicle id="400039" type="Berliner" route="27" depart="74" departLane="free" departSpeed="random" />
    <vehicle id="400040" type="Berliner" route="8" depart="75" departLane="free" departSpeed="random" />
    <vehicle id="400041" type="Berliner" route="5" depart="79" departLane="free" departSpeed="random" />
    <vehicle id="400042" type="Berliner" route="8" depart="79" departLane="free" departSpeed="random" />
    <vehicle id="400043" type="Berliner" route="8" depart="81" departLane="free" departSpeed="random" />
    <vehicle id="400044" type="Berliner" route="11" depart="81" departLane="free" departSpeed="random" />
    <vehicle id="400045" type="Berliner" route="20" depart="82" departLane="free" departSpeed="random" />
    <vehicle id="400046" type="Berliner" route="5" depart="83" departLane="free" departSpeed="random" />
    <vehicle id="400047" type="Berliner" route="27" depart="88" departLane="free" departSpeed="random" />
    <vehicle id="400048" type="Berliner" route="8" depart="90" departLane="free" departSpeed="random" />
    <vehicle id="400049" type="Berliner" route="22" depart="90" departLane="free" departSpeed="random" />
    <vehicle id="400050" type="Berliner" route="22" depart="92" departLane="free" departSpeed="random" />
    <vehicle id="400051" type="Berliner" route="3" depart="93" departLane="free" departSpeed="random" />
    <vehicle id="400052" type="Berliner" route="8" depart="94" departLane="free" departSpeed="random" />
    <vehicle id="400053" type="Berliner" route="2" depart="95" departLane="free" departSpeed="random" />
    <vehicle id="400054" type="Berliner" route="5" depart="95" departLane="free" departSpeed="random" />
    <vehicle id="400055" type="Berliner" route="16" depart="95" departLane="free" departSpeed="random" />
    <vehicle id="400056" type="Berliner" route="5" depart="97" departLane="free" departSpeed="random" />
    <vehicle id="400057" type="Berliner" route="5" depart="100" departLane="free" departSpeed="random" />
    <vehicle id="400058" type="Berliner" route="17" depart="100" departLane="free" departSpeed="random" />
    <vehicle id="400059" type="Berliner" route="2" depart="102" departLane="free" departSpeed="random" />
    <vehicle id="400060" type="Berliner" route="5" depart="103" departLane="free" departSpeed="random" />
    <vehicle id="400061" type="Berliner" route="17" depart="105" departLane="free" departSpeed="random" />
    <vehicle id="400062" type="Berliner" route="22" depart="105" departLane="free" departSpeed="random" />
    <vehicle id="400063" type="Berliner" route="4" depart="106" departLane="free" departSpeed="random" />
    <vehicle id="400064" type="Berliner" route="8" depart="106" departLane="free" departSpeed="random" />
    <vehicle id="400065" type="Berliner" route="27" depart="106" departLane="free" departSpeed="random" />
    <vehicle id="400066" type="Berliner" route="5" depart="107" departLane="free" departSpeed="random" />
    <vehicle id="400067" type="Berliner" route="5" depart="113" departLane="free" departSpeed="random" />
    <vehicle id="400068" type="Berliner" route="1" depart="114" departLane="free" departSpeed="random" />
    <vehicle id="400069" type="Berliner" route="5" depart="115" departLane="free" departSpeed="random" />
    <vehicle id="400070" type="Berliner" route="8" depart="115" departLane="free" departSpeed="random" />
    <vehicle id="400071" type="Berliner" route="8" depart="119" departLane="free" departSpeed="random" />
    <vehicle id="400072" type="Berliner" route="4" depart="124" departLane="free" departSpeed="random" />
    <vehicle id="400073" type="Berliner" route="6" depart="125" departLane="free" departSpeed="random" />
    <vehicle id="400074" type="Berliner" route="9" depart="125" departLane="free" departSpeed="random" />
    <vehicle id="400075" type="Berliner" route="9" depart="126" departLane="free" departSpeed="random" />
    <vehicle id="400076" type="Berliner" route="8" depart="132" departLane="free" departSpeed="random" />
    <vehicle id="400077" type="Berliner" route="8" depart="134" departLane="free" departSpeed="random" />
    <vehicle id="400078" type="Berliner" route="8" depart="135" departLane="free" departSpeed="random" />
    <vehicle id="400079" type="Berliner" route="5" depart="143" departLane="free" departSpeed="random" />
    <vehicle id="400080" type="Berliner" route="8" depart="147" departLane="free" departSpeed="random" />
    <vehicle id="400081" type="Berliner" route="21" depart="147" departLane="free" departSpeed="random" />
    <vehicle id="400082" type="Berliner" route="17" depart="148" departLane="free" departSpeed="random" />
    <vehicle id="400083" type="Berliner" route="22" depart="150" departLane="free" departSpeed="random" />
    <vehicle id="400084" type="Berliner" route="8" depart="152" departLane="free" departSpeed="random" />
    <vehicle id="400085" type="Berliner" route="2" depart="154" departLane="free" departSpeed="random" />
    <vehicle id="400086" type="Berliner" route="8" depart="155" departLane="free" departSpeed="random" />
    <vehicle id="400087" type="Berliner" route="8" depart="156" departLane="free" departSpeed="random" />
    <vehicle id="400088" type="Berliner" route="8" depart="157" departLane="free" departSpeed="random" />
    <vehicle id="400089" type="Berliner" route="17" depart="160" departLane="free" departSpeed="random" />
    <vehicle id="400090" type="Berliner" route="8" depart="162" departLane="free" departSpeed="random" />
    <vehicle id="400091" type="Berliner" route="22" depart="163" departLane="free" departSpeed="random" />
    <vehicle id="400092" type="Berliner" route="5" depart="165" departLane="free" departSpeed="random" />
    <vehicle id="400093" type="Berliner" route="27" depart="167" departLane="free" departSpeed="random" />
    <vehicle id="400094" type="Berliner" route="5" depart="169" departLane="free" departSpeed="random" />
    <vehicle id="400095" type="Berliner" route="6" depart="174" departLane="free" departSpeed="random" />
    <vehicle id="400096" type="Berliner" route="8" depart="176" departLane="free" departSpeed="random" />
    <vehicle id="400097" type="Berliner" route="27" depart="178" departLane="free" departSpeed="random" />
    <vehicle id="400098" type="Berliner" route="10" depart="187" departLane="free" departSpeed="random" />
    <vehicle id="400099" type="Berliner" route="12" depart="188" departLane="free" departSpeed="random" />
    <vehicle id="400100" type="Berliner" route="17" depart="188" departLane="free" departSpeed="random" />
    <vehicle id="400101" type="Berliner" route="11" depart="189" departLane="free" departSpeed="random" />
    <vehicle id="400102" type="Berliner" route="8" depart="190" departLane="free" departSpeed="random" />
    <vehicle id="400103" type="Berliner" route="5" depart="192" departLane="free" departSpeed="random" />
    <vehicle id="400104" type="Berliner" route="8" depart="195" departLane="free" departSpeed="random" />
    <vehicle id="400105" type="Berliner" route="9" depart="196" departLane="free" departSpeed="random" />
    <vehicle id="400106" type="Berliner" route="8" depart="199" departLane="free" departSpeed="random" />
    <vehicle id="400107" type="Berliner" route="5" depart="201" departLane="free" departSpeed="random" />
    <vehicle id="400108" type="Berliner" route="5" depart="204" departLane="free" departSpeed="random" />
    <vehicle id="400109" type="Berliner" route="22" depart="204" departLane="free" departSpeed="random" />
    <vehicle id="400110" type="Berliner" route="22" depart="209" departLane="free" departSpeed="random" />
    <vehicle id="400111" type="Berliner" route="8" depart="210" departLane="free" departSpeed="random" />
    <vehicle id="400112" type="Berliner" route="17" depart="217" departLane="free" departSpeed="random" />
    <vehicle id="400113" type="Berliner" route="22" depart="217" departLane="free" departSpeed="random" />
    <vehicle id="400114" type="Berliner" route="1" depart="218" departLane="free" departSpeed="random" />
    <vehicle id="400115" type="Berliner" route="22" depart="222" departLane="free" departSpeed="random" />
    <vehicle id="400116" type="Berliner" route="1" depart="224" departLane="free" departSpeed="random" />
    <vehicle id="400117" type="Berliner" route="3" depart="225" departLane="free" departSpeed="random" />
    <vehicle id="400118" type="Berliner" route="21" depart="228" departLane="free" departSpeed="random" />
    <vehicle id="400119" type="Berliner" route="1" depart="231" departLane="free" departSpeed="random" />
    <vehicle id="400120" type="Berliner" route="5" depart="241" departLane="free" departSpeed="random" />
    <vehicle id="400121" type="Berliner" route="5" depart="244" departLane="free" departSpeed="random" />
    <vehicle id="400122" type="Berliner" route="10" depart="245" departLane="free" departSpeed="random" />
    <vehicle id="400123" type="Berliner" route="11" depart="245" departLane="free" departSpeed="random" />
    <vehicle id="400124" type="Berliner" route="8" depart="246" departLane="free" departSpeed="random" />
    <vehicle id="400125" type="Berliner" route="5" depart="248" departLane="free" departSpeed="random" />
    <vehicle id="400126" type="Berliner" route="5" depart="252" departLane="free" departSpeed="random" />
    <vehicle id="400127" type="Berliner" route="8" depart="254" departLane="free" departSpeed="random" />
    <vehicle id="400128" type="Berliner" route="27" depart="263" departLane="free" departSpeed="random" />
    <vehicle id="400129" type="Berliner" route="12" depart="266" departLane="free" departSpeed="random" />
    <vehicle id="400130" type="Berliner" route="8" depart="270" departLane="free" departSpeed="random" />
    <vehicle id="400131" type="Berliner" route="11" depart="273" departLane="free" departSpeed="random" />
    <vehicle id="400132" type="Berliner" route="8" depart="275" departLane="free" departSpeed="random" />
    <vehicle id="400133" type="Berliner" route="17" depart="278" departLane="free" departSpeed="random" />
    <vehicle id="400134" type="Berliner" route="5" depart="280" departLane="free" departSpeed="random" />
    <vehicle id="400135" type="Berliner" route="11" depart="280" departLane="free" departSpeed="random" />
    <vehicle id="400136" type="Berliner" route="20" depart="282" departLane="free" departSpeed="random" />
    <vehicle id="400137" type="Berliner" route="17" depart="283" departLane="free" departSpeed="random" />
    <vehicle id="400138" type="Berliner" route="5" depart="285" departLane="free" departSpeed="random" />
    <vehicle id="400139" type="Berliner" route="9" depart="287" departLane="free" departSpeed="random" />
    <vehicle id="400140" type="Berliner" route="27" depart="288" departLane="free" departSpeed="random" />
    <vehicle id="400141" type="Berliner" route="8" depart="291" departLane="free" departSpeed="random" />
    <vehicle id="400142" type="Berliner" route="22" depart="295" departLane="free" departSpeed="random" />
    <vehicle id="400143" type="Berliner" route="22" depart="296" departLane="free" departSpeed="random" />
    <vehicle id="400144" type="Berliner" route="5" depart="299" departLane="free" departSpeed="random" />
    <vehicle id="400145" type="Berliner" route="27" depart="300" departLane="free" departSpeed="random" />
    <vehicle id="400146" type="Berliner" route="5" depart="301" departLane="free" departSpeed="random" />
    <vehicle id="400147" type="Berliner" route="22" depart="303" departLane="free" departSpeed="random" />
    <vehicle id="400148" type="Berliner" route="22" depart="304" departLane="free" departSpeed="random" />
    <vehicle id="400149" type="Berliner" route="1" depart="305" departLane="free" departSpeed="random" />
    <vehicle id="400150" type="Berliner" route="6" depart="305" departLane="free" departSpeed="random" />
    <vehicle id="400151" type="Berliner" route="11" depart="306" departLane="free" departSpeed="random" />
    <vehicle id="400152" type="Berliner" route="22" depart="307" departLane="free" departSpeed="random" />
    <vehicle id="400153" type="Berliner" route="3" depart="309" departLane="free" departSpeed="random" />
    <vehicle id="400154" type="Berliner" route="17" depart="309" departLane="free" departSpeed="random" />
    <vehicle id="400155" type="Berliner" route="8" depart="311" departLane="free" departSpeed="random" />
    <vehicle id="400156" type="Berliner" route="11" depart="311" departLane="free" departSpeed="random" />
    <vehicle id="400157" type="Berliner" route="11" depart="313" departLane="free" departSpeed="random" />
    <vehicle id="400158" type="Berliner" route="5" depart="314" departLane="free" departSpeed="random" />
    <vehicle id="400159" type="Berliner" route="8" depart="315" departLane="free" departSpeed="random" />
    <vehicle id="400160" type="Berliner" route="8" depart="316" departLane="free" departSpeed="random" />
    <vehicle id="400161" type="Berliner" route="5" depart="318" departLane="free" departSpeed="random" />
    <vehicle id="400162" type="Berliner" route="5" depart="324" departLane="free" departSpeed="random" />
    <vehicle id="400163" type="Berliner" route="17" depart="324" departLane="free" departSpeed="random" />
    <vehicle id="400164" type="Berliner" route="10" depart="336" departLane="free" departSpeed="random" />
    <vehicle id="400165" type="Berliner" route="8" depart="337" departLane="free" departSpeed="random" />
    <vehicle id="400166" type="Berliner" route="17" depart="338" departLane="free" departSpeed="random" />
    <vehicle id="400167" type="Berliner" route="22" depart="342" departLane="free" departSpeed="random" />
    <vehicle id="400168" type="Berliner" route="17" depart="343" departLane="free" departSpeed="random" />
    <vehicle id="400169" type="Berliner" route="1" depart="349" departLane="free" departSpeed="random" />
    <vehicle id="400170" type="Berliner" route="8" depart="351" departLane="free" departSpeed="random" />
    <vehicle id="400171" type="Berliner" route="8" depart="355" departLane="free" departSpeed="random" />
    <vehicle id="400172" type="Berliner" route="8" depart="358" departLane="free" departSpeed="random" />
    <vehicle id="400173" type="Berliner" route="11" depart="359" departLane="free" departSpeed="random" />
    <vehicle id="400174" type="Berliner" route="10" depart="360" departLane="free" departSpeed="random" />
    <vehicle id="400175" type="Berliner" route="22" depart="363" departLane="free" departSpeed="random" />
    <vehicle id="400176" type="Berliner" route="21" depart="367" departLane="free" departSpeed="random" />
    <vehicle id="400177" type="Berliner" route="6" depart="371" departLane="free" departSpeed="random" />
    <vehicle id="400178" type="Berliner" route="8" depart="373" departLane="free" departSpeed="random" />
    <vehicle id="400179" type="Berliner" route="2" depart="374" departLane="free" departSpeed="random" />
    <vehicle id="400180" type="Berliner" route="22" depart="374" departLane="free" departSpeed="random" />
    <vehicle id="400181" type="Berliner" route="22" depart="377" departLane="free" departSpeed="random" />
    <vehicle id="400182" type="Berliner" route="5" depart="378" departLane="free" departSpeed="random" />
    <vehicle id="400183" type="Berliner" route="2" depart="380" departLane="free" departSpeed="random" />
    <vehicle id="400184" type="Berliner" route="27" depart="381" departLane="free" departSpeed="random" />
    <vehicle id="400185" type="Berliner" route="17" depart="382" departLane="free" departSpeed="random" />
    <vehicle id="400186" type="Berliner" route="7" depart="384" departLane="free" departSpeed="random" />
    <vehicle id="400187" type="Berliner" route="8" depart="386" departLane="free" departSpeed="random" />
    <vehicle id="400188" type="Berliner" route="11" depart="387" departLane="free" departSpeed="random" />
    <vehicle id="400189" type="Berliner" route="8" depart="388" departLane="free" departSpeed="random" />
    <vehicle id="400190" type="Berliner" route="22" depart="392" departLane="free" departSpeed="random" />
    <vehicle id="400191" type="Berliner" route="20" depart="395" departLane="free" departSpeed="random" />
    <vehicle id="400192" type="Berliner" route="8" depart="399" departLane="free" departSpeed="random" />
    <vehicle id="400193" type="Berliner" route="5" depart="400" departLane="free" departSpeed="random" />
    <vehicle id="400194" type="Berliner" route="5" depart="402" departLane="free" departSpeed="random" />
    <vehicle id="400195" type="Berliner" route="27" depart="409" departLane="free" departSpeed="random" />
    <vehicle id="400196" type="Berliner" route="2" depart="411" departLane="free" departSpeed="random" />
    <vehicle id="400197" type="Berliner" route="6" depart="411" departLane="free" departSpeed="random" />
    <vehicle id="400198" type="Berliner" route="17" depart="411" departLane="free" departSpeed="random" />
    <vehicle id="400199" type="Berliner" route="5" depart="412" departLane="free" departSpeed="random" />
    <vehicle id="400200" type="Berliner" route="7" depart="416" departLane="free" departSpeed="random" />
    <vehicle id="400201" type="Berliner" route="27" depart="417" departLane="free" departSpeed="random" />
    <vehicle id="400202" type="Berliner" route="8" depart="418" departLane="free" departSpeed="random" />
    <vehicle id="400203" type="Berliner" route="5" depart="420" departLane="free" departSpeed="random" />
    <vehicle id="400204" type="Berliner" route="8" depart="421" departLane="free" departSpeed="random" />
    <vehicle id="400205" type="Berliner" route="6" depart="422" departLane="free" departSpeed="random" />
    <vehicle id="400206" type="Berliner" route="7" depart="426" departLane="free" departSpeed="random" />
    <vehicle id="400207" type="Berliner" route="27" depart="426" departLane="free" departSpeed="random" />
    <vehicle id="400208" type="Berliner" route="5" depart="430" departLane="free" departSpeed="random" />
    <vehicle id="400209" type="Berliner" route="8" depart="434" departLane="free" departSpeed="random" />
    <vehicle id="400210" type="Berliner" route="8" depart="436" departLane="free" departSpeed="random" />
    <vehicle id="400211" type="Berliner" route="8" depart="438" departLane="free" departSpeed="random" />
    <vehicle id="400212" type="Berliner" route="5" depart="439" departLane="free" departSpeed="random" />
    <vehicle id="400213" type="Berliner" route="9" depart="440" departLane="free" departSpeed="random" />
    <vehicle id="400214" type="Berliner" route="9" depart="442" departLane="free" departSpeed="random" />
    <vehicle id="400215" type="Berliner" route="27" depart="445" departLane="free" departSpeed="random" />
    <vehicle id="400216" type="Berliner" route="8" depart="449" departLane="free" departSpeed="random" />
    <vehicle id="400217" type="Berliner" route="8" depart="450" departLane="free" departSpeed="random" />
    <vehicle id="400218" type="Berliner" route="5" depart="456" departLane="free" departSpeed="random" />
    <vehicle id="400219" type="Berliner" route="6" depart="461" departLane="free" departSpeed="random" />
    <vehicle id="400220" type="Berliner" route="8" depart="461" departLane="free" departSpeed="random" />
    <vehicle id="400221" type="Berliner" route="11" depart="461" departLane="free" departSpeed="random" />
    <vehicle id="400222" type="Berliner" route="8" depart="463" departLane="free" departSpeed="random" />
    <vehicle id="400223" type="Berliner" route="22" depart="465" departLane="free" departSpeed="random" />
    <vehicle id="400224" type="Berliner" route="27" depart="466" departLane="free" departSpeed="random" />
    <vehicle id="400225" type="Berliner" route="6" depart="471" departLane="free" departSpeed="random" />
    <vehicle id="400226" type="Berliner" route="27" depart="472" departLane="free" departSpeed="random" />
    <vehicle id="400227" type="Berliner" route="5" depart="475" departLane="free" departSpeed="random" />
    <vehicle id="400228" type="Berliner" route="17" depart="475" departLane="free" departSpeed="random" />
    <vehicle id="400229" type="Berliner" route="8" depart="477" departLane="free" departSpeed="random" />
    <vehicle id="400230" type="Berliner" route="27" depart="478" departLane="free" departSpeed="random" />
    <vehicle id="400231" type="Berliner" route="5" depart="482" departLane="free" departSpeed="random" />
    <vehicle id="400232" type="Berliner" route="17" depart="482" departLane="free" departSpeed="random" />
    <vehicle id="400233" type="Berliner" route="6" depart="483" departLane="free" departSpeed="random" />
    <vehicle id="400234" type="Berliner" route="8" depart="485" departLane="free" departSpeed="random" />
    <vehicle id="400235" type="Berliner" route="17" depart="489" departLane="free" departSpeed="random" />
    <vehicle id="400236" type="Berliner" route="22" depart="489" departLane="free" departSpeed="random" />
    <vehicle id="400237" type="Berliner" route="6" depart="491" departLane="free" departSpeed="random" />
    <vehicle id="400238" type="Berliner" route="5" depart="492" departLane="free" departSpeed="random" />
    <vehicle id="400239" type="Berliner" route="8" depart="492" departLane="free" departSpeed="random" />
    <vehicle id="400240" type="Berliner" route="11" depart="492" departLane="free" departSpeed="random" />
    <vehicle id="400241" type="Berliner" route="4" depart="495" departLane="free" departSpeed="random" />
    <vehicle id="400242" type="Berliner" route="7" depart="496" departLane="free" departSpeed="random" />
    <vehicle id="400243" type="Berliner" route="8" depart="496" departLane="free" departSpeed="random" />
    <vehicle id="400244" type="Berliner" route="5" depart="497" departLane="free" departSpeed="random" />
    <vehicle id="400245" type="Berliner" route="8" depart="497" departLane="free" departSpeed="random" />
    <vehicle id="400246" type="Berliner" route="17" depart="497" departLane="free" departSpeed="random" />
    <vehicle id="400247" type="Berliner" route="21" depart="503" departLane="free" departSpeed="random" />
    <vehicle id="400248" type="Berliner" route="27" depart="503" departLane="free" departSpeed="random" />
    <vehicle id="400249" type="Berliner" route="3" depart="505" departLane="free" departSpeed="random" />
    <vehicle id="400250" type="Berliner" route="7" depart="507" departLane="free" departSpeed="random" />
    <vehicle id="400251" type="Berliner" route="26" depart="507" departLane="free" departSpeed="random" />
    <vehicle id="400252" type="Berliner" route="5" depart="508" departLane="free" departSpeed="random" />
    <vehicle id="400253" type="Berliner" route="3" depart="510" departLane="free" departSpeed="random" />
    <vehicle id="400254" type="Berliner" route="4" depart="510" departLane="free" departSpeed="random" />
    <vehicle id="400255" type="Berliner" route="27" depart="510" departLane="free" departSpeed="random" />
    <vehicle id="400256" type="Berliner" route="5" depart="513" departLane="free" departSpeed="random" />
    <vehicle id="400257" type="Berliner" route="11" depart="514" departLane="free" departSpeed="random" />
    <vehicle id="400258" type="Berliner" route="10" depart="515" departLane="free" departSpeed="random" />