<routes>
        
            <vType id="Raleigh" accel="0.8" decel="1.5" sigma="0.5" length="1.6" maxSpeed="5.8" color="255,255,0" guiShape="bicycle" vClass="bicycle" emissionClass="zero"/>  
        
            <route id="l" edges="a_1 1_2 2_3 3_10 10_9 9_c"/>
            <route id="ll" edges="a_1 1_2 2_3 3_11 11_12 12_d"/>
            <route id="lll" edges="a_1 1_2 2_3 3_4 4_5 5_6 6_14 14_13 13_e"/>
            <route id="lV" edges="a_1 1_2 2_3 3_4 4_5 5_6 6_15 15_16 16_f"/>
            <route id="V" edges="a_1 1_2 2_3 3_4 4_5 5_6 6_7 7_8 8_b"/>

            <route id="Vl" edges="b_8 8_7 7_6 6_15 15_16 16_f"/>
            <route id="Vll" edges="b_8 8_7 7_6 6_14 14_13 13_e"/>
            <route id="Vlll" edges="b_8 8_7 7_6 6_5 5_4 4_3 3_2 2_1 1_a"/>
            <route id="lX" edges="b_8 8_7 7_6 6_5 5_4 4_3 3_11 11_12 12_d"/> 
            <route id="X" edges="b_8 8_7 7_6 6_5 5_4 4_3 3_10 10_9 9_c"/>
            
            <route id="Xl" edges="d_12 12_11 11_3 3_10 10_9 9_c"/>
            <route id="Xll" edges="d_12 12_11 11_3  3_2 2_1 1_a "/>
            <route id="Xlll" edges="d_12 12_11 11_3 3_4 4_5 5_6 6_7 7_8 8_b"/>
            <route id="XlV" edges="d_12 12_11 11_3  3_4 4_5 5_6 6_15 15_16 16_f"/> 
            <route id="XV" edges="d_12 12_11 11_3 3_4 4_5 5_6 6_14 14_13 13_e"/>
            
            <route id="XVl" edges="c_9 9_10 10_3 3_2 2_1 1_a"/>
            <route id="XVll" edges="c_9 9_10 10_3 3_11 11_12 12_d"/>
            <route id="XVlll" edges="c_9 9_10 10_3 3_4 4_5 5_6 6_15 15_16 16_f"/>
            <route id="XlX" edges="c_9 9_10 10_3 3_4 4_5 5_6 6_14 14_13 13_e"/> 
            <route id="XX" edges="c_9 9_10 10_3 3_4 4_5 5_6 6_7 7_8 8_b"/>
            
            <route id="XXl" edges="f_16 16_15 15_6 6_7 7_8 8_b"/>
            <route id="XXll" edges="f_16 16_15 15_6 6_14 14_13 13_e"/>
            <route id="XXlll" edges="f_16 16_15 15_6 6_5 5_4 4_3 3_11 11_12 12_d"/>
            <route id="XXlV" edges="f_16 16_15 15_6 6_5 5_4 4_3 3_10 10_9 9_c"/> 
            <route id="XXV" edges="f_16 16_15 15_6 6_5 5_4 4_3 3_2 2_1 1_a"/>
            
            <route id="XXVl" edges="e_13 13_14 14_6 6_7 7_8 8_b"/>
            <route id="XXVll" edges="e_13 13_14 14_6 6_15 15_16 16_f"/>
            <route id="XXVlll" edges="e_13 13_14 14_6 6_5 5_4 4_3 3_11 11_12 12_d"/>
            <route id="XXlX" edges="e_13 13_14 14_6 6_5 5_4 4_3 3_10 10_9 9_c"/> 
            <route id="XXX" edges="e_13 13_14 14_6 6_5 5_4 4_3 3_2 2_1 1_a"/>	
                        
        
    <vehicle id="400000" type="Raleigh" route="V" depart="1" departLane="free" departSpeed="random" />
    <vehicle id="400001" type="Raleigh" route="V" depart="2" departLane="free" departSpeed="random" />
    <vehicle id="400002" type="Raleigh" route="lX" depart="2" departLane="free" departSpeed="random" />
    <vehicle id="400003" type="Raleigh" route="lX" depart="3" departLane="free" departSpeed="random" />
    <vehicle id="400004" type="Raleigh" route="Vlll" depart="4" departLane="free" departSpeed="random" />
    <vehicle id="400005" type="Raleigh" route="lV" depart="5" departLane="free" departSpeed="random" />
    <vehicle id="400006" type="Raleigh" route="Vlll" depart="5" departLane="free" departSpeed="random" />
    <vehicle id="400007" type="Raleigh" route="l" depart="6" departLane="free" departSpeed="random" />
    <vehicle id="400008" type="Raleigh" route="l" depart="7" departLane="free" departSpeed="random" />
    <vehicle id="400009" type="Raleigh" route="XVll" depart="7" departLane="free" departSpeed="random" />
    <vehicle id="400010" type="Raleigh" route="V" depart="8" departLane="free" departSpeed="random" />
    <vehicle id="400011" type="Raleigh" route="Vlll" depart="8" departLane="free" departSpeed="random" />
    <vehicle id="400012" type="Raleigh" route="XVll" depart="8" departLane="free" departSpeed="random" />
    <vehicle id="400013" type="Raleigh" route="Vlll" depart="9" departLane="free" departSpeed="random" />
    <vehicle id="400014" type="Raleigh" route="X" depart="9" departLane="free" departSpeed="random" />
    <vehicle id="400015" type="Raleigh" route="Vll" depart="10" departLane="free" departSpeed="random" />
    <vehicle id="400016" type="Raleigh" route="lll" depart="11" departLane="free" departSpeed="random" />
    <vehicle id="400017" type="Raleigh" route="V" depart="19" departLane="free" departSpeed="random" />
    <vehicle id="400018" type="Raleigh" route="Xl" depart="20" departLane="free" departSpeed="random" />
    <vehicle id="400019" type="Raleigh" route="XXll" depart="23" departLane="free" departSpeed="random" />
    <vehicle id="400020" type="Raleigh" route="X" depart="28" departLane="free" departSpeed="random" />
    <vehicle id="400021" type="Raleigh" route="V" depart="29" departLane="free" departSpeed="random" />
    <vehicle id="400022" type="Raleigh" route="lll" depart="30" departLane="free" departSpeed="random" />
    <vehicle id="400023" type="Raleigh" route="V" depart="33" departLane="free" departSpeed="random" />
    <vehicle id="400024" type="Raleigh" route="Vlll" depart="34" departLane="free" departSpeed="random" />
    <vehicle id="400025" type="Raleigh" route="Xl" depart="34" departLane="free" departSpeed="random" />
    <vehicle id="400026" type="Raleigh" route="lV" depart="35" departLane="free" departSpeed="random" />
    <vehicle id="400027" type="Raleigh" route="Vlll" depart="35" departLane="free" departSpeed="random" />
    <vehicle id="400028" type="Raleigh" route="XXll" depart="37" departLane="free" departSpeed="random" />
    <vehicle id="400029" type="Raleigh" route="V" depart="38" departLane="free" departSpeed="random" />
    <vehicle id="400030" type="Raleigh" route="XXVll" depart="38" departLane="free" departSpeed="random" />
    <vehicle id="400031" type="Raleigh" route="XXl" depart="39" departLane="free" departSpeed="random" />
    <vehicle id="400032" type="Raleigh" route="Vlll" depart="42" departLane="free" departSpeed="random" />
    <vehicle id="400033" type="Raleigh" route="XXVll" depart="44" departLane="free" departSpeed="random" />
    <vehicle id="400034" type="Raleigh" route="lV" depart="47" departLane="free" departSpeed="random" />
    <vehicle id="400035" type="Raleigh" route="lV" depart="48" departLane="free" departSpeed="random" />
    <vehicle id="400036" type="Raleigh" route="l" depart="49" departLane="free" departSpeed="random" />
    <vehicle id="400037" type="Raleigh" route="V" depart="50" departLane="free" departSpeed="random" />
    <vehicle id="400038" type="Raleigh" route="Vlll" depart="51" departLane="free" departSpeed="random" />
    <vehicle id="400039" type="Raleigh" route="XXVll" depart="54" departLane="free" departSpeed="random" />
    <vehicle id="400040" type="Raleigh" route="ll" depart="55" departLane="free" departSpeed="random" />
    <vehicle id="400041" type="Raleigh" route="Xl" depart="57" departLane="free" departSpeed="random" />
    <vehicle id="400042" type="Raleigh" route="Vlll" depart="58" departLane="free" departSpeed="random" />
    <vehicle id="400043" type="Raleigh" route="Xl" depart="61" departLane="free" departSpeed="random" />
    <vehicle id="400044" type="Raleigh" route="Vlll" depart="66" departLane="free" departSpeed="random" />
    <vehicle id="400045" type="Raleigh" route="V" depart="67" departLane="free" departSpeed="random" />
    <vehicle id="400046" type="Raleigh" route="XXll" depart="67" departLane="free" departSpeed="random" />
    <vehicle id="400047" type="Raleigh" route="Vlll" depart="68" departLane="free" departSpeed="random" />
    <vehicle id="400048" type="Raleigh" route="V" depart="70" departLane="free" departSpeed="random" />
    <vehicle id="400049" type="Raleigh" route="XXll" depart="74" departLane="free" departSpeed="random" />
    <vehicle id="400050" type="Raleigh" route="V" depart="76" departLane="free" departSpeed="random" />
    <vehicle id="400051" type="Raleigh" route="Xl" depart="80" departLane="free" departSpeed="random" />
    <vehicle id="400052" type="Raleigh" route="ll" depart="82" departLane="free" departSpeed="random" />
    <vehicle id="400053" type="Raleigh" route="V" depart="82" departLane="free" departSpeed="random" />
    <vehicle id="400054" type="Raleigh" route="Vlll" depart="82" departLane="free" departSpeed="random" />
    <vehicle id="400055" type="Raleigh" route="Vlll" depart="83" departLane="free" departSpeed="random" />
    <vehicle id="400056" type="Raleigh" route="XXll" depart="83" departLane="free" departSpeed="random" />
    <vehicle id="400057" type="Raleigh" route="Vlll" depart="84" departLane="free" departSpeed="random" />
    <vehicle id="400058" type="Raleigh" route="XXll" depart="84" departLane="free" departSpeed="random" />
    <vehicle id="400059" type="Raleigh" route="Vlll" depart="85" departLane="free" departSpeed="random" />
    <vehicle id="400060" type="Raleigh" route="XXll" depart="85" departLane="free" departSpeed="random" />
    <vehicle id="400061" type="Raleigh" route="Vlll" depart="87" departLane="free" departSpeed="random" />
    <vehicle id="400062" type="Raleigh" route="V" depart="89" departLane="free" departSpeed="random" />
    <vehicle id="400063" type="Raleigh" route="V" depart="90" departLane="free" departSpeed="random" />
    <vehicle id="400064" type="Raleigh" route="lV" depart="92" departLane="free" departSpeed="random" />
    <vehicle id="400065" type="Raleigh" route="lV" depart="94" departLane="free" departSpeed="random" />
    <vehicle id="400066" type="Raleigh" route="Xl" depart="95" departLane="free" departSpeed="random" />
    <vehicle id="400067" type="Raleigh" route="X" depart="100" departLane="free" departSpeed="random" />
    <vehicle id="400068" type="Raleigh" route="XXV" depart="100" departLane="free" departSpeed="random" />
    <vehicle id="400069" type="Raleigh" route="V" depart="101" departLane="free" departSpeed="random" />
    <vehicle id="400070" type="Raleigh" route="Xl" depart="101" departLane="free" departSpeed="random" />
    <vehicle id="400071" type="Raleigh" route="lV" depart="104" departLane="free" departSpeed="random" />
    <vehicle id="400072" type="Raleigh" route="XXll" depart="104" departLane="free" departSpeed="random" />
    <vehicle id="400073" type="Raleigh" route="XVll" depart="107" departLane="free" departSpeed="random" />
    <vehicle id="400074" type="Raleigh" route="V" depart="109" departLane="free" departSpeed="random" />
    <vehicle id="400075" type="Raleigh" route="lV" depart="113" departLane="free" departSpeed="random" />
    <vehicle id="400076" type="Raleigh" route="XXll" depart="113" departLane="free" departSpeed="random" />
    <vehicle id="400077" type="Raleigh" route="XXVll" depart="116" departLane="free" departSpeed="random" />
    <vehicle id="400078" type="Raleigh" route="V" depart="117" departLane="free" departSpeed="random" />
    <vehicle id="400079" type="Raleigh" route="Vlll" depart="117" departLane="free" departSpeed="random" />
    <vehicle id="400080" type="Raleigh" route="V" depart="120" departLane="free" departSpeed="random" />
    <vehicle id="400081" type="Raleigh" route="XXVll" depart="120" departLane="free" departSpeed="random" />
    <vehicle id="400082" type="Raleigh" route="XVll" depart="121" departLane="free" departSpeed="random" />
    <vehicle id="400083" type="Raleigh" route="Vll" depart="123" departLane="free" departSpeed="random" />
    <vehicle id="400084" type="Raleigh" route="Vl" depart="128" departLane="free" departSpeed="random" />
    <vehicle id="400085" type="Raleigh" route="Xl" depart="129" departLane="free" departSpeed="random" />
    <vehicle id="400086" type="Raleigh" route="XVll" depart="129" departLane="free" departSpeed="random" />
    <vehicle id="400087" type="Raleigh" route="V" depart="130" departLane="free" departSpeed="random" />
    <vehicle id="400088" type="Raleigh" route="Vlll" depart="130" departLane="free" departSpeed="random" />
    <vehicle id="400089" type="Raleigh" route="Vlll" depart="132" departLane="free" departSpeed="random" />
    <vehicle id="400090" type="Raleigh" route="V" depart="136" departLane="free" departSpeed="random" />
    <vehicle id="400091" type="Raleigh" route="Xl" depart="137" departLane="free" departSpeed="random" />
    <vehicle id="400092" type="Raleigh" route="Xl" depart="138" departLane="free" departSpeed="random" />
    <vehicle id="400093" type="Raleigh" route="l" depart="140" departLane="free" departSpeed="random" />
    <vehicle id="400094" type="Raleigh" route="XVll" depart="141" departLane="free" departSpeed="random" />
    <vehicle id="400095" type="Raleigh" route="Vlll" depart="142" departLane="free" departSpeed="random" />
    <vehicle id="400096" type="Raleigh" route="l" depart="143" departLane="free" departSpeed="random" />
    <vehicle id="400097" type="Raleigh" route="lll" depart="143" departLane="free" departSpeed="random" />
    <vehicle id="400098" type="Raleigh" route="Vlll" depart="148" departLane="free" departSpeed="random" />
    <vehicle id="400099" type="Raleigh" route="XXVl" depart="149" departLane="free" departSpeed="random" />
    <vehicle id="400100" type="Raleigh" route="Vl" depart="150" departLane="free" departSpeed="random" />
    <vehicle id="400101" type="Raleigh" route="XXll" depart="150" departLane="free" departSpeed="random" />
    <vehicle id="400102" type="Raleigh" route="Vlll" depart="151" departLane="free" departSpeed="random" />
    <vehicle id="400103" type="Raleigh" route="lX" depart="151" departLane="free" departSpeed="random" />
    <vehicle id="400104" type="Raleigh" route="Vl" depart="152" departLane="free" departSpeed="random" />
    <vehicle id="400105" type="Raleigh" route="XVll" depart="152" departLane="free" departSpeed="random" />
    <vehicle id="400106" type="Raleigh" route="Vlll" depart="153" departLane="free" departSpeed="random" />
    <vehicle id="400107" type="Raleigh" route="lV" depart="156" departLane="free" departSpeed="random" />
    <vehicle id="400108" type="Raleigh" route="XVll" depart="156" departLane="free" departSpeed="random" />
    <vehicle id="400109" type="Raleigh" route="Vlll" depart="157" departLane="free" departSpeed="random" />
    <vehicle id="400110" type="Raleigh" route="V" depart="159" departLane="free" departSpeed="random" />
    <vehicle id="400111" type="Raleigh" route="Vlll" depart="161" departLane="free" departSpeed="random" />
    <vehicle id="400112" type="Raleigh" route="XXll" depart="161" departLane="free" departSpeed="random" />
    <vehicle id="400113" type="Raleigh" route="XXVll" depart="163" departLane="free" departSpeed="random" />
    <vehicle id="400114" type="Raleigh" route="V" depart="164" departLane="free" departSpeed="random" />
    <vehicle id="400115" type="Raleigh" route="Vl" depart="164" departLane="free" departSpeed="random" />
    <vehicle id="400116" type="Raleigh" route="ll" depart="165" departLane="free" departSpeed="random" />
    <vehicle id="400117" type="Raleigh" route="lll" depart="167" departLane="free" departSpeed="random" />
    <vehicle id="400118" type="Raleigh" route="XXll" depart="168" departLane="free" departSpeed="random" />
    <vehicle id="400119" type="Raleigh" route="ll" depart="170" departLane="free" departSpeed="random" />
    <vehicle id="400120" type="Raleigh" route="lll" depart="170" departLane="free" departSpeed="random" />
    <vehicle id="400121" type="Raleigh" route="Vlll" depart="170" departLane="free" departSpeed="random" />
    <vehicle id="400122" type="Raleigh" route="XX" depart="171" departLane="free" departSpeed="random" />
    <vehicle id="400123" type="Raleigh" route="lV" depart="172" departLane="free" departSpeed="random" />
    <vehicle id="400124" type="Raleigh" route="XVll" depart="173" departLane="free" departSpeed="random" />
    <vehicle id="400125" type="Raleigh" route="Vlll" depart="178" departLane="free" departSpeed="random" />
    <vehicle id="400126" type="Raleigh" route="Vlll" depart="180" departLane="free" departSpeed="random" />
    <vehicle id="400127" type="Raleigh" route="V" depart="184" departLane="free" departSpeed="random" />
    <vehicle id="400128" type="Raleigh" route="V" depart="187" departLane="free" departSpeed="random" />
    <vehicle id="400129" type="Raleigh" route="Vlll" depart="187" departLane="free" departSpeed="random" />
    <vehicle id="400130" type="Raleigh" route="lV" depart="191" departLane="free" departSpeed="random" />
    <vehicle id="400131" type="Raleigh" route="lV" depart="193" departLane="free" departSpeed="random" />
    <vehicle id="400132" type="Raleigh" route="V" depart="195" departLane="free" departSpeed="random" />
    <vehicle id="400133" type="Raleigh" route="Xl" depart="196" departLane="free" departSpeed="random" />
    <vehicle id="400134" type="Raleigh" route="XXll" depart="196" departLane="free" departSpeed="random" />
    <vehicle id="400135" type="Raleigh" route="Vlll" depart="199" departLane="free" departSpeed="random" />
    <vehicle id="400136" type="Raleigh" route="Xll" depart="199" departLane="free" departSpeed="random" />
    <vehicle id="400137" type="Raleigh" route="XVll" depart="202" departLane="free" departSpeed="random" />
    <vehicle id="400138" type="Raleigh" route="Xll" depart="203" departLane="free" departSpeed="random" />
    <vehicle id="400139" type="Raleigh" route="X" depart="204" departLane="free" departSpeed="random" />
    <vehicle id="400140" type="Raleigh" route="lll" depart="206" departLane="free" departSpeed="random" />
    <vehicle id="400141" type="Raleigh" route="V" depart="206" departLane="free" departSpeed="random" />
    <vehicle id="400142" type="Raleigh" route="XXVll" depart="206" departLane="free" departSpeed="random" />
    <vehicle id="400143" type="Raleigh" route="Vlll" depart="208" departLane="free" departSpeed="random" />
    <vehicle id="400144" type="Raleigh" route="Vlll" depart="210" departLane="free" departSpeed="random" />
    <vehicle id="400145" type="Raleigh" route="l" depart="214" departLane="free" departSpeed="random" />
    <vehicle id="400146" type="Raleigh" route="Vlll" depart="215" departLane="free" departSpeed="random" />
    <vehicle id="400147" type="Raleigh" route="V" depart="216" departLane="free" departSpeed="random" />
    <vehicle id="400148" type="Raleigh" route="Vll" depart="217" departLane="free" departSpeed="random" />
    <vehicle id="400149" type="Raleigh" route="V" depart="218" departLane="free" departSpeed="random" />
    <vehicle id="400150" type="Raleigh" route="Vll" depart="220" departLane="free" departSpeed="random" />
    <vehicle id="400151" type="Raleigh" route="Vll" depart="221" departLane="free" departSpeed="random" />
    <vehicle id="400152" type="Raleigh" route="XXl" depart="221" departLane="free" departSpeed="random" />
    <vehicle id="400153" type="Raleigh" route="XXll" depart="223" departLane="free" departSpeed="random" />
    <vehicle id="400154" type="Raleigh" route="V" depart="226" departLane="free" departSpeed="random" />
    <vehicle id="400155" type="Raleigh" route="Vlll" depart="227" departLane="free" departSpeed="random" />
    <vehicle id="400156" type="Raleigh" route="Vlll" depart="229" departLane="free" departSpeed="random" />
    <vehicle id="400157" type="Raleigh" route="V" depart="231" departLane="free" departSpeed="random" />
    <vehicle id="400158" type="Raleigh" route="XVll" depart="231" departLane="free" departSpeed="random" />
    <vehicle id="400159" type="Raleigh" route="V" depart="236" departLane="free" departSpeed="random" />
    <vehicle id="400160" type="Raleigh" route="Vlll" depart="236" departLane="free" departSpeed="random" />
    <vehicle id="400161" type="Raleigh" route="XXll" depart="237" departLane="free" departSpeed="random" />
    <vehicle id="400162" type="Raleigh" route="Vlll" depart="243" departLane="free" departSpeed="random" />
    <vehicle id="400163" type="Raleigh" route="Vlll" depart="244" departLane="free" departSpeed="random" />
    <vehicle id="400164" type="Raleigh" route="V" depart="248" departLane="free" departSpeed="random" />
    <vehicle id="400165" type="Raleigh" route="lV" depart="249" departLane="free" departSpeed="random" />
    <vehicle id="400166" type="Raleigh" route="Vlll" depart="249" departLane="free" departSpeed="random" />
    <vehicle id="400167" type="Raleigh" route="Vlll" depart="250" departLane="free" departSpeed="random" />
    <vehicle id="400168" type="Raleigh" route="XXVll" depart="252" departLane="free" departSpeed="random" />
    <vehicle id="400169" type="Raleigh" route="lV" depart="259" departLane="free" departSpeed="random" />
    <vehicle id="400170" type="Raleigh" route="V" depart="259" departLane="free" departSpeed="random" />
    <vehicle id="400171" type="Raleigh" route="Vl" depart="262" departLane="free" departSpeed="random" />
    <vehicle id="400172" type="Raleigh" route="XVll" depart="263" departLane="free" departSpeed="random" />
    <vehicle id="400173" type="Raleigh" route="V" depart="264" departLane="free" departSpeed="random" />
    <vehicle id="400174" type="Raleigh" route="V" depart="265" departLane="free" departSpeed="random" />
    <vehicle id="400175" type="Raleigh" route="Vlll" depart="265" departLane="free" departSpeed="random" />
    <vehicle id="400176" type="Raleigh" route="XVl" depart="265" departLane="free" departSpeed="random" />
    <vehicle id="400177" type="Raleigh" route="Xl" depart="267" departLane="free" departSpeed="random" />
    <vehicle id="400178" type="Raleigh" route="V" depart="272" departLane="free" departSpeed="random" />
    <vehicle id="400179" type="Raleigh" route="Vll" depart="273" departLane="free" departSpeed="random" />
    <vehicle id="400180" type="Raleigh" route="XXVll" depart="278" departLane="free" departSpeed="random" />
    <vehicle id="400181" type="Raleigh" route="ll" depart="279" departLane="free" departSpeed="random" />
    <vehicle id="400182" type="Raleigh" route="XVll" depart="279" departLane="free" departSpeed="random" />
    <vehicle id="400183" type="Raleigh" route="Vlll" depart="280" departLane="free" departSpeed="random" />
    <vehicle id="400184" type="Raleigh" route="Vlll" depart="284" departLane="free" departSpeed="random" />
    <vehicle id="400185" type="Raleigh" route="V" depart="293" departLane="free" departSpeed="random" />
    <vehicle id="400186" type="Raleigh" route="Vl" depart="293" departLane="free" departSpeed="random" />
    <vehicle id="400187" type="Raleigh" route="Vlll" depart="297" departLane="free" departSpeed="random" />
    <vehicle id="400188" type="Raleigh" route="Vlll" depart="298" departLane="free" departSpeed="random" />
    <vehicle id="400189" type="Raleigh" route="V" depart="299" departLane="free" departSpeed="random" />
    <vehicle id="400190" type="Raleigh" route="Vlll" depart="300" departLane="free" departSpeed="random" />
    <vehicle id="400191" type="Raleigh" route="Xl" depart="300" departLane="free" departSpeed="random" />
    <vehicle id="400192" type="Raleigh" route="XXVll" depart="300" departLane="free" departSpeed="random" />
    <vehicle id="400193" type="Raleigh" route="XXVll" depart="306" departLane="free" departSpeed="random" />
    <vehicle id="400194" type="Raleigh" route="V" depart="308" departLane="free" departSpeed="random" />
    <vehicle id="400195" type="Raleigh" route="lll" depart="309" departLane="free" departSpeed="random" />
    <vehicle id="400196" type="Raleigh" route="V" depart="309" departLane="free" departSpeed="random" />
    <vehicle id="400197" type="Raleigh" route="V" depart="312" departLane="free" departSpeed="random" />
    <vehicle id="400198" type="Raleigh" route="Xl" depart="312" departLane="free" departSpeed="random" />
    <vehicle id="400199" type="Raleigh" route="Vl" depart="314" departLane="free" departSpeed="random" />
    <vehicle id="400200" type="Raleigh" route="XXll" depart="315" departLane="free" departSpeed="random" />
    <vehicle id="400201" type="Raleigh" route="XXVll" depart="315" departLane="free" departSpeed="random" />
    <vehicle id="400202" type="Raleigh" route="XVll" depart="319" departLane="free" departSpeed="random" />
    <vehicle id="400203" type="Raleigh" route="Vlll" depart="320" departLane="free" departSpeed="random" />
    <vehicle id="400204" type="Raleigh" route="XVll" depart="322" departLane="free" departSpeed="random" />
    <vehicle id="400205" type="Raleigh" route="X" depart="323" departLane="free" departSpeed="random" />
    <vehicle id="400206" type="Raleigh" route="Vll" depart="324" departLane="free" departSpeed="random" />
    <vehicle id="400207" type="Raleigh" route="lX" depart="328" departLane="free" departSpeed="random" />
    <vehicle id="400208" type="Raleigh" route="Xlll" depart="331" departLane="free" departSpeed="random" />
    <vehicle id="400209" type="Raleigh" route="XVll" depart="337" departLane="free" departSpeed="random" />
    <vehicle id="400210" type="Raleigh" route="V" depart="338" departLane="free" departSpeed="random" />
    <vehicle id="400211" type="Raleigh" route="Vlll" depart="338" departLane="free" departSpeed="random" />
    <vehicle id="400212" type="Raleigh" route="XVll" depart="338" departLane="free" departSpeed="random" />
    <vehicle id="400213" type="Raleigh" route="XXV" depart="340" departLane="free" departSpeed="random" />
    <vehicle id="400214" type="Raleigh" route="V" depart="341" departLane="free" departSpeed="random" />
    <vehicle id="400215" type="Raleigh" route="V" depart="342" departLane="free" departSpeed="random" />
    <vehicle id="400216" type="Raleigh" route="V" depart="348" departLane="free" departSpeed="random" />
    <vehicle id="400217" type="Raleigh" route="XXll" depart="349" departLane="free" departSpeed="random" />
    <vehicle id="400218" type="Raleigh" route="XV" depart="351" departLane="free" departSpeed="random" />
    <vehicle id="400219" type="Raleigh" route="V" depart="352" departLane="free" departSpeed="random" />
    <vehicle id="400220" type="Raleigh" route="lll" depart="354" departLane="free" departSpeed="random" />
    <vehicle id="400221" type="Raleigh" route="V" depart="356" departLane="free" departSpeed="random" />
    <vehicle id="400222" type="Raleigh" route="XXVll" depart="357" departLane="free" departSpeed="random" />
    <vehicle id="400223" type="Raleigh" route="Vlll" depart="358" departLane="free" departSpeed="random" />
    <vehicle id="400224" type="Raleigh" route="Xlll" depart="358" departLane="free" departSpeed="random" />
    <vehicle id="400225" type="Raleigh" route="XXl" depart="358" departLane="free" departSpeed="random" />
    <vehicle id="400226" type="Raleigh" route="XVll" depart="360" departLane="free" departSpeed="random" />
    <vehicle id="400227" type="Raleigh" route="Vlll" depart="362" departLane="free" departSpeed="random" />
    <vehicle id="400228" type="Raleigh" route="Xlll" depart="362" departLane="free" departSpeed="random" />
    <vehicle id="400229" type="Raleigh" route="V" depart="367" departLane="free" departSpeed="random" />
    <vehicle id="400230" type="Raleigh" route="V" depart="370" departLane="free" departSpeed="random" />
    <vehicle id="400231" type="Raleigh" route="X" depart="374" departLane="free" departSpeed="random" />
    <vehicle id="400232" type="Raleigh" route="XX" depart="376" departLane="free" departSpeed="random" />
    <vehicle id="400233" type="Raleigh" route="V" depart="378" departLane="free" departSpeed="random" />
    <vehicle id="400234" type="Raleigh" route="V" depart="380" departLane="free" departSpeed="random" />
    <vehicle id="400235" type="Raleigh" route="Vlll" depart="380" departLane="free" departSpeed="random" />
    <vehicle id="400236" type="Raleigh" route="Vlll" depart="382" departLane="free" departSpeed="random" />
    <vehicle id="400237" type="Raleigh" route="l" depart="385" departLane="free" departSpeed="random" />
    <vehicle id="400238" type="Raleigh" route="lll" depart="387" departLane="free" departSpeed="random" />
    <vehicle id="400239" type="Raleigh" route="Vlll" depart="389" departLane="free" departSpeed="random" />
    <vehicle id="400240" type="Raleigh" route="Vlll" depart="391" departLane="free" departSpeed="random" />
    <vehicle id="400241" type="Raleigh" route="XVll" depart="392" departLane="free" departSpeed="random" />
    <vehicle id="400242" type="Raleigh" route="l" depart="393" departLane="free" departSpeed="random" />
    <vehicle id="400243" type="Raleigh" route="X" depart="395" departLane="free" departSpeed="random" />
    <vehicle id="400244" type="Raleigh" route="Xl" depart="396" departLane="free" departSpeed="random" />
    <vehicle id="400245" type="Raleigh" route="V" depart="400" departLane="free" departSpeed="random" />
    <vehicle id="400246" type="Raleigh" route="Vll" depart="400" departLane="free" departSpeed="random" />
    <vehicle id="400247" type="Raleigh" route="V" depart="401" departLane="free" departSpeed="random" />
    <vehicle id="400248" type="Raleigh" route="Xll" depart="403" departLane="free" departSpeed="random" />
    <vehicle id="400249" type="Raleigh" route="XXVll" depart="404" departLane="free" departSpeed="random" />
    <vehicle id="400250" type="Raleigh" route="XX" depart="405" departLane="free" departSpeed="random" />
    <vehicle id="400251" type="Raleigh" route="Vlll" depart="407" departLane="free" departSpeed="random" />
    <vehicle id="400252" type="Raleigh" route="V" depart="408" departLane="free" departSpeed="random" />
    <vehicle id="400253" type="Raleigh" route="XXll" depart="408" departLane="free" departSpeed="random" />
    <vehicle id="400254" type="Raleigh" route="Xl" depart="409" departLane="free" departSpeed="random" />
    <vehicle id="400255" type="Raleigh" route="V" depart="410" departLane="free" departSpeed="random" />
    <vehicle id="400256" type="Raleigh" route="Vlll" depart="410" departLane="free" departSpeed="random" />
    <vehicle id="400257" type="Raleigh" route="Vlll" depart="414" departLane="free" departSpeed="random" />