<routes>
        
            <vType id="Raleigh" accel="0.8" decel="1.5" sigma="0.5" length="1.6" maxSpeed="5.8" color="255,255,0" guiShape="bicycle" vClass="bicycle" emissionClass="zero"/>  
        
            <route id="l" edges="a_3 3_c"/>
            <route id="ll" edges="a_3 3_d"/>
            <route id="lll" edges="a_3 3_6 6_e"/>
            <route id="lV" edges="a_3 3_6 6_f"/>
            <route id="V" edges="a_3 3_6 6_b"/>

            <route id="Vl" edges="b_6 6_f"/>
            <route id="Vll" edges="b_6 6_e"/>
            <route id="Vlll" edges="b_6 6_3 3_a"/>
            <route id="lX" edges="b_6 6_3 3_d"/> 
            <route id="X" edges="b_6 6_3 3_c"/>
            
            
            <route id="Xl" edges="d_3 3_c"/>
            <route id="Xll" edges="d_3 3_a "/>
            <route id="Xlll" edges="d_3 3_6 6_b"/>
            <route id="XlV" edges="d_3 3_6 6_f"/> 
            <route id="XV" edges="d_3 3_6 6_e"/>
            
            <route id="XVl" edges="c_3 3_a"/>
            <route id="XVll" edges="c_3 3_d"/>
            <route id="XVlll" edges="c_3 3_6 6_f"/>
            <route id="XlX" edges="c_3 3_6 6_e"/> 
            <route id="XX" edges="c_3 3_6 6_b"/>
            
            <route id="XXl" edges="f_6 6_b"/>
            <route id="XXll" edges="f_6 6_e"/>
            <route id="XXlll" edges="f_6 6_3 3_d"/>
            <route id="XXlV" edges="f_6 6_3 3_c"/> 
            <route id="XXV" edges="f_6 6_3 3_a"/>
            
            <route id="XXVl"  edges="e_6 6_b"/>
            <route id="XXVll" edges="e_6 6_f"/>
            <route id="XXVlll" edges="e_6 6_3 3_d"/>
            <route id="XXlX" edges="e_6 6_3 3_c"/> 
            <route id="XXX" edges="e_6 6_3 3_a"/>	
                        
        
    <vehicle id="400000" type="Raleigh" route="XVll" depart="0" departLane="free" departSpeed="random" />
    <vehicle id="400001" type="Raleigh" route="V" depart="5" departLane="free" departSpeed="random" />
    <vehicle id="400002" type="Raleigh" route="ll" depart="14" departLane="free" departSpeed="random" />
    <vehicle id="400003" type="Raleigh" route="V" depart="14" departLane="free" departSpeed="random" />
    <vehicle id="400004" type="Raleigh" route="Vlll" depart="16" departLane="free" departSpeed="random" />
    <vehicle id="400005" type="Raleigh" route="V" depart="23" departLane="free" departSpeed="random" />
    <vehicle id="400006" type="Raleigh" route="lV" depart="24" departLane="free" departSpeed="random" />
    <vehicle id="400007" type="Raleigh" route="V" depart="25" departLane="free" departSpeed="random" />
    <vehicle id="400008" type="Raleigh" route="lX" depart="25" departLane="free" departSpeed="random" />
    <vehicle id="400009" type="Raleigh" route="XXX" depart="27" departLane="free" departSpeed="random" />
    <vehicle id="400010" type="Raleigh" route="XXVll" depart="28" departLane="free" departSpeed="random" />
    <vehicle id="400011" type="Raleigh" route="V" depart="29" departLane="free" departSpeed="random" />
    <vehicle id="400012" type="Raleigh" route="Vlll" depart="34" departLane="free" departSpeed="random" />
    <vehicle id="400013" type="Raleigh" route="V" depart="36" departLane="free" departSpeed="random" />
    <vehicle id="400014" type="Raleigh" route="V" depart="39" departLane="free" departSpeed="random" />
    <vehicle id="400015" type="Raleigh" route="Vlll" depart="40" departLane="free" departSpeed="random" />
    <vehicle id="400016" type="Raleigh" route="Xll" depart="40" departLane="free" departSpeed="random" />
    <vehicle id="400017" type="Raleigh" route="XX" depart="40" departLane="free" departSpeed="random" />
    <vehicle id="400018" type="Raleigh" route="Vlll" depart="41" departLane="free" departSpeed="random" />
    <vehicle id="400019" type="Raleigh" route="V" depart="43" departLane="free" departSpeed="random" />
    <vehicle id="400020" type="Raleigh" route="lV" depart="45" departLane="free" departSpeed="random" />
    <vehicle id="400021" type="Raleigh" route="Xl" depart="46" departLane="free" departSpeed="random" />
    <vehicle id="400022" type="Raleigh" route="V" depart="47" departLane="free" departSpeed="random" />
    <vehicle id="400023" type="Raleigh" route="XXl" depart="58" departLane="free" departSpeed="random" />
    <vehicle id="400024" type="Raleigh" route="lX" depart="59" departLane="free" departSpeed="random" />
    <vehicle id="400025" type="Raleigh" route="lV" depart="60" departLane="free" departSpeed="random" />
    <vehicle id="400026" type="Raleigh" route="V" depart="61" departLane="free" departSpeed="random" />
    <vehicle id="400027" type="Raleigh" route="V" depart="63" departLane="free" departSpeed="random" />
    <vehicle id="400028" type="Raleigh" route="V" depart="64" departLane="free" departSpeed="random" />
    <vehicle id="400029" type="Raleigh" route="V" depart="66" departLane="free" departSpeed="random" />
    <vehicle id="400030" type="Raleigh" route="V" depart="68" departLane="free" departSpeed="random" />
    <vehicle id="400031" type="Raleigh" route="XXVll" depart="69" departLane="free" departSpeed="random" />
    <vehicle id="400032" type="Raleigh" route="V" depart="71" departLane="free" departSpeed="random" />
    <vehicle id="400033" type="Raleigh" route="X" depart="73" departLane="free" departSpeed="random" />
    <vehicle id="400034" type="Raleigh" route="ll" depart="75" departLane="free" departSpeed="random" />
    <vehicle id="400035" type="Raleigh" route="l" depart="77" departLane="free" departSpeed="random" />
    <vehicle id="400036" type="Raleigh" route="V" depart="77" departLane="free" departSpeed="random" />
    <vehicle id="400037" type="Raleigh" route="ll" depart="84" departLane="free" departSpeed="random" />
    <vehicle id="400038" type="Raleigh" route="Vlll" depart="88" departLane="free" departSpeed="random" />
    <vehicle id="400039" type="Raleigh" route="lV" depart="91" departLane="free" departSpeed="random" />
    <vehicle id="400040" type="Raleigh" route="V" depart="92" departLane="free" departSpeed="random" />
    <vehicle id="400041" type="Raleigh" route="l" depart="93" departLane="free" departSpeed="random" />
    <vehicle id="400042" type="Raleigh" route="XVll" depart="93" departLane="free" departSpeed="random" />
    <vehicle id="400043" type="Raleigh" route="Xll" depart="96" departLane="free" departSpeed="random" />
    <vehicle id="400044" type="Raleigh" route="lll" depart="97" departLane="free" departSpeed="random" />
    <vehicle id="400045" type="Raleigh" route="Vlll" depart="103" departLane="free" departSpeed="random" />
    <vehicle id="400046" type="Raleigh" route="XXVl" depart="103" departLane="free" departSpeed="random" />
    <vehicle id="400047" type="Raleigh" route="V" depart="104" departLane="free" departSpeed="random" />
    <vehicle id="400048" type="Raleigh" route="XVll" depart="110" departLane="free" departSpeed="random" />
    <vehicle id="400049" type="Raleigh" route="lX" depart="115" departLane="free" departSpeed="random" />
    <vehicle id="400050" type="Raleigh" route="lV" depart="116" departLane="free" departSpeed="random" />
    <vehicle id="400051" type="Raleigh" route="V" depart="117" departLane="free" departSpeed="random" />
    <vehicle id="400052" type="Raleigh" route="Vlll" depart="117" departLane="free" departSpeed="random" />
    <vehicle id="400053" type="Raleigh" route="V" depart="120" departLane="free" departSpeed="random" />
    <vehicle id="400054" type="Raleigh" route="Vlll" depart="122" departLane="free" departSpeed="random" />
    <vehicle id="400055" type="Raleigh" route="lX" depart="123" departLane="free" departSpeed="random" />
    <vehicle id="400056" type="Raleigh" route="XXVll" depart="123" departLane="free" departSpeed="random" />
    <vehicle id="400057" type="Raleigh" route="V" depart="124" departLane="free" departSpeed="random" />
    <vehicle id="400058" type="Raleigh" route="V" depart="129" departLane="free" departSpeed="random" />
    <vehicle id="400059" type="Raleigh" route="l" depart="132" departLane="free" departSpeed="random" />
    <vehicle id="400060" type="Raleigh" route="Vl" depart="139" departLane="free" departSpeed="random" />
    <vehicle id="400061" type="Raleigh" route="Vlll" depart="139" departLane="free" departSpeed="random" />
    <vehicle id="400062" type="Raleigh" route="lV" depart="140" departLane="free" departSpeed="random" />
    <vehicle id="400063" type="Raleigh" route="Vlll" depart="141" departLane="free" departSpeed="random" />
    <vehicle id="400064" type="Raleigh" route="Vlll" depart="144" departLane="free" departSpeed="random" />
    <vehicle id="400065" type="Raleigh" route="XXll" depart="147" departLane="free" departSpeed="random" />
    <vehicle id="400066" type="Raleigh" route="ll" depart="155" departLane="free" departSpeed="random" />
    <vehicle id="400067" type="Raleigh" route="Xll" depart="156" departLane="free" departSpeed="random" />
    <vehicle id="400068" type="Raleigh" route="lV" depart="160" departLane="free" departSpeed="random" />
    <vehicle id="400069" type="Raleigh" route="lll" depart="162" departLane="free" departSpeed="random" />
    <vehicle id="400070" type="Raleigh" route="XVll" depart="166" departLane="free" departSpeed="random" />
    <vehicle id="400071" type="Raleigh" route="Vlll" depart="172" departLane="free" departSpeed="random" />
    <vehicle id="400072" type="Raleigh" route="V" depart="174" departLane="free" departSpeed="random" />
    <vehicle id="400073" type="Raleigh" route="XVll" depart="175" departLane="free" departSpeed="random" />
    <vehicle id="400074" type="Raleigh" route="Vlll" depart="178" departLane="free" departSpeed="random" />
    <vehicle id="400075" type="Raleigh" route="Vll" depart="182" departLane="free" departSpeed="random" />
    <vehicle id="400076" type="Raleigh" route="XXVl" depart="184" departLane="free" departSpeed="random" />
    <vehicle id="400077" type="Raleigh" route="V" depart="188" departLane="free" departSpeed="random" />
    <vehicle id="400078" type="Raleigh" route="l" depart="193" departLane="free" departSpeed="random" />
    <vehicle id="400079" type="Raleigh" route="XXll" depart="196" departLane="free" departSpeed="random" />
    <vehicle id="400080" type="Raleigh" route="Vl" depart="197" departLane="free" departSpeed="random" />
    <vehicle id="400081" type="Raleigh" route="XXll" depart="197" departLane="free" departSpeed="random" />
    <vehicle id="400082" type="Raleigh" route="XVll" depart="198" departLane="free" departSpeed="random" />
    <vehicle id="400083" type="Raleigh" route="l" depart="199" departLane="free" departSpeed="random" />
    <vehicle id="400084" type="Raleigh" route="lX" depart="201" departLane="free" departSpeed="random" />
    <vehicle id="400085" type="Raleigh" route="Vlll" depart="202" departLane="free" departSpeed="random" />
    <vehicle id="400086" type="Raleigh" route="ll" depart="204" departLane="free" departSpeed="random" />
    <vehicle id="400087" type="Raleigh" route="Vlll" depart="206" departLane="free" departSpeed="random" />
    <vehicle id="400088" type="Raleigh" route="XVll" depart="212" departLane="free" departSpeed="random" />
    <vehicle id="400089" type="Raleigh" route="Vll" depart="213" departLane="free" departSpeed="random" />
    <vehicle id="400090" type="Raleigh" route="Vlll" depart="214" departLane="free" departSpeed="random" />
    <vehicle id="400091" type="Raleigh" route="XVll" depart="215" departLane="free" departSpeed="random" />
    <vehicle id="400092" type="Raleigh" route="XXVll" depart="220" departLane="free" departSpeed="random" />
    <vehicle id="400093" type="Raleigh" route="V" depart="221" departLane="free" departSpeed="random" />
    <vehicle id="400094" type="Raleigh" route="Vlll" depart="221" departLane="free" departSpeed="random" />
    <vehicle id="400095" type="Raleigh" route="ll" depart="222" departLane="free" departSpeed="random" />
    <vehicle id="400096" type="Raleigh" route="Vlll" depart="222" departLane="free" departSpeed="random" />
    <vehicle id="400097" type="Raleigh" route="V" depart="223" departLane="free" departSpeed="random" />
    <vehicle id="400098" type="Raleigh" route="Vlll" depart="227" departLane="free" departSpeed="random" />
    <vehicle id="400099" type="Raleigh" route="Xl" depart="228" departLane="free" departSpeed="random" />
    <vehicle id="400100" type="Raleigh" route="XXVll" depart="230" departLane="free" departSpeed="random" />
    <vehicle id="400101" type="Raleigh" route="lX" depart="231" departLane="free" departSpeed="random" />
    <vehicle id="400102" type="Raleigh" route="XXll" depart="231" departLane="free" departSpeed="random" />
    <vehicle id="400103" type="Raleigh" route="Vlll" depart="233" departLane="free" departSpeed="random" />
    <vehicle id="400104" type="Raleigh" route="V" depart="235" departLane="free" departSpeed="random" />
    <vehicle id="400105" type="Raleigh" route="X" depart="243" departLane="free" departSpeed="random" />
    <vehicle id="400106" type="Raleigh" route="V" depart="244" departLane="free" departSpeed="random" />
    <vehicle id="400107" type="Raleigh" route="l" depart="245" departLane="free" departSpeed="random" />
    <vehicle id="400108" type="Raleigh" route="Vlll" depart="245" departLane="free" departSpeed="random" />
    <vehicle id="400109" type="Raleigh" route="XXVll" depart="246" departLane="free" departSpeed="random" />
    <vehicle id="400110" type="Raleigh" route="XVll" depart="248" departLane="free" departSpeed="random" />
    <vehicle id="400111" type="Raleigh" route="lll" depart="250" departLane="free" departSpeed="random" />
    <vehicle id="400112" type="Raleigh" route="V" depart="251" departLane="free" departSpeed="random" />
    <vehicle id="400113" type="Raleigh" route="lX" depart="253" departLane="free" departSpeed="random" />
    <vehicle id="400114" type="Raleigh" route="Xl" depart="253" departLane="free" departSpeed="random" />
    <vehicle id="400115" type="Raleigh" route="XVll" depart="253" departLane="free" departSpeed="random" />
    <vehicle id="400116" type="Raleigh" route="lX" depart="263" departLane="free" departSpeed="random" />
    <vehicle id="400117" type="Raleigh" route="ll" depart="264" departLane="free" departSpeed="random" />
    <vehicle id="400118" type="Raleigh" route="V" depart="267" departLane="free" departSpeed="random" />
    <vehicle id="400119" type="Raleigh" route="lX" depart="268" departLane="free" departSpeed="random" />
    <vehicle id="400120" type="Raleigh" route="lll" depart="269" departLane="free" departSpeed="random" />
    <vehicle id="400121" type="Raleigh" route="V" depart="270" departLane="free" departSpeed="random" />
    <vehicle id="400122" type="Raleigh" route="lX" depart="270" departLane="free" departSpeed="random" />
    <vehicle id="400123" type="Raleigh" route="Vlll" depart="276" departLane="free" departSpeed="random" />
    <vehicle id="400124" type="Raleigh" route="lX" depart="276" departLane="free" departSpeed="random" />
    <vehicle id="400125" type="Raleigh" route="Xl" depart="278" departLane="free" departSpeed="random" />
    <vehicle id="400126" type="Raleigh" route="XXVll" depart="280" departLane="free" departSpeed="random" />
    <vehicle id="400127" type="Raleigh" route="V" depart="281" departLane="free" departSpeed="random" />
    <vehicle id="400128" type="Raleigh" route="Xl" depart="282" departLane="free" departSpeed="random" />
    <vehicle id="400129" type="Raleigh" route="l" depart="283" departLane="free" departSpeed="random" />
    <vehicle id="400130" type="Raleigh" route="XXVll" depart="283" departLane="free" departSpeed="random" />
    <vehicle id="400131" type="Raleigh" route="Vlll" depart="288" departLane="free" departSpeed="random" />
    <vehicle id="400132" type="Raleigh" route="XXl" depart="288" departLane="free" departSpeed="random" />
    <vehicle id="400133" type="Raleigh" route="Vl" depart="289" departLane="free" departSpeed="random" />
    <vehicle id="400134" type="Raleigh" route="Vlll" depart="293" departLane="free" departSpeed="random" />
    <vehicle id="400135" type="Raleigh" route="lX" depart="294" departLane="free" departSpeed="random" />
    <vehicle id="400136" type="Raleigh" route="Vll" depart="295" departLane="free" departSpeed="random" />
    <vehicle id="400137" type="Raleigh" route="XVll" depart="295" departLane="free" departSpeed="random" />
    <vehicle id="400138" type="Raleigh" route="XVll" depart="296" departLane="free" departSpeed="random" />
    <vehicle id="400139" type="Raleigh" route="lV" depart="297" departLane="free" departSpeed="random" />
    <vehicle id="400140" type="Raleigh" route="Vlll" depart="297" departLane="free" departSpeed="random" />
    <vehicle id="400141" type="Raleigh" route="Vlll" depart="300" departLane="free" departSpeed="random" />
    <vehicle id="400142" type="Raleigh" route="XVll" depart="301" departLane="free" departSpeed="random" />
    <vehicle id="400143" type="Raleigh" route="Vlll" depart="303" departLane="free" departSpeed="random" />
    <vehicle id="400144" type="Raleigh" route="l" depart="304" departLane="free" departSpeed="random" />
    <vehicle id="400145" type="Raleigh" route="XVll" depart="306" departLane="free" departSpeed="random" />
    <vehicle id="400146" type="Raleigh" route="l" depart="312" departLane="free" departSpeed="random" />
    <vehicle id="400147" type="Raleigh" route="Xl" depart="312" departLane="free" departSpeed="random" />
    <vehicle id="400148" type="Raleigh" route="V" depart="313" departLane="free" departSpeed="random" />
    <vehicle id="400149" type="Raleigh" route="Xl" depart="317" departLane="free" departSpeed="random" />
    <vehicle id="400150" type="Raleigh" route="V" depart="318" departLane="free" departSpeed="random" />
    <vehicle id="400151" type="Raleigh" route="Xl" depart="319" departLane="free" departSpeed="random" />
    <vehicle id="400152" type="Raleigh" route="XXVll" depart="319" departLane="free" departSpeed="random" />
    <vehicle id="400153" type="Raleigh" route="Vll" depart="322" departLane="free" departSpeed="random" />
    <vehicle id="400154" type="Raleigh" route="XVll" depart="322" departLane="free" departSpeed="random" />
    <vehicle id="400155" type="Raleigh" route="V" depart="323" departLane="free" departSpeed="random" />
    <vehicle id="400156" type="Raleigh" route="XVll" depart="323" departLane="free" departSpeed="random" />
    <vehicle id="400157" type="Raleigh" route="l" depart="326" departLane="free" departSpeed="random" />
    <vehicle id="400158" type="Raleigh" route="Vll" depart="327" departLane="free" departSpeed="random" />
    <vehicle id="400159" type="Raleigh" route="Vlll" depart="331" departLane="free" departSpeed="random" />
    <vehicle id="400160" type="Raleigh" route="l" depart="333" departLane="free" departSpeed="random" />
    <vehicle id="400161" type="Raleigh" route="Xl" depart="333" departLane="free" departSpeed="random" />
    <vehicle id="400162" type="Raleigh" route="V" depart="335" departLane="free" departSpeed="random" />
    <vehicle id="400163" type="Raleigh" route="V" depart="345" departLane="free" departSpeed="random" />
    <vehicle id="400164" type="Raleigh" route="Vlll" depart="346" departLane="free" departSpeed="random" />
    <vehicle id="400165" type="Raleigh" route="Vll" depart="347" departLane="free" departSpeed="random" />
    <vehicle id="400166" type="Raleigh" route="Vl" depart="348" departLane="free" departSpeed="random" />
    <vehicle id="400167" type="Raleigh" route="l" depart="349" departLane="free" departSpeed="random" />
    <vehicle id="400168" type="Raleigh" route="ll" depart="349" departLane="free" departSpeed="random" />
    <vehicle id="400169" type="Raleigh" route="lll" depart="351" departLane="free" departSpeed="random" />
    <vehicle id="400170" type="Raleigh" route="Xll" depart="354" departLane="free" departSpeed="random" />
    <vehicle id="400171" type="Raleigh" route="XVll" depart="356" departLane="free" departSpeed="random" />
    <vehicle id="400172" type="Raleigh" route="XXll" depart="359" departLane="free" departSpeed="random" />
    <vehicle id="400173" type="Raleigh" route="V" depart="360" departLane="free" departSpeed="random" />
    <vehicle id="400174" type="Raleigh" route="Vlll" depart="361" departLane="free" departSpeed="random" />
    <vehicle id="400175" type="Raleigh" route="Vlll" depart="363" departLane="free" departSpeed="random" />
    <vehicle id="400176" type="Raleigh" route="Vlll" depart="365" departLane="free" departSpeed="random" />
    <vehicle id="400177" type="Raleigh" route="V" depart="367" departLane="free" departSpeed="random" />
    <vehicle id="400178" type="Raleigh" route="ll" depart="371" departLane="free" departSpeed="random" />
    <vehicle id="400179" type="Raleigh" route="Vlll" depart="371" departLane="free" departSpeed="random" />
    <vehicle id="400180" type="Raleigh" route="Vlll" depart="372" departLane="free" departSpeed="random" />
    <vehicle id="400181" type="Raleigh" route="V" depart="375" departLane="free" departSpeed="random" />
    <vehicle id="400182" type="Raleigh" route="X" depart="379" departLane="free" departSpeed="random" />
    <vehicle id="400183" type="Raleigh" route="Xl" depart="379" departLane="free" departSpeed="random" />
    <vehicle id="400184" type="Raleigh" route="Vlll" depart="382" departLane="free" departSpeed="random" />
    <vehicle id="400185" type="Raleigh" route="Vlll" depart="391" departLane="free" departSpeed="random" />
    <vehicle id="400186" type="Raleigh" route="XXVll" depart="391" departLane="free" departSpeed="random" />
    <vehicle id="400187" type="Raleigh" route="ll" depart="394" departLane="free" departSpeed="random" />
    <vehicle id="400188" type="Raleigh" route="Vlll" depart="394" departLane="free" departSpeed="random" />
    <vehicle id="400189" type="Raleigh" route="X" depart="397" departLane="free" departSpeed="random" />
    <vehicle id="400190" type="Raleigh" route="Vl" depart="398" departLane="free" departSpeed="random" />
    <vehicle id="400191" type="Raleigh" route="Xl" depart="400" departLane="free" departSpeed="random" />
    <vehicle id="400192" type="Raleigh" route="V" depart="401" departLane="free" departSpeed="random" />
    <vehicle id="400193" type="Raleigh" route="V" depart="406" departLane="free" departSpeed="random" />
    <vehicle id="400194" type="Raleigh" route="Vl" depart="406" departLane="free" departSpeed="random" />
    <vehicle id="400195" type="Raleigh" route="XXV" depart="407" departLane="free" departSpeed="random" />
    <vehicle id="400196" type="Raleigh" route="lX" depart="414" departLane="free" departSpeed="random" />
    <vehicle id="400197" type="Raleigh" route="V" depart="420" departLane="free" departSpeed="random" />
    <vehicle id="400198" type="Raleigh" route="Vlll" depart="420" departLane="free" departSpeed="random" />
    <vehicle id="400199" type="Raleigh" route="XXVll" depart="421" departLane="free" departSpeed="random" />
    <vehicle id="400200" type="Raleigh" route="X" depart="426" departLane="free" departSpeed="random" />
    <vehicle id="400201" type="Raleigh" route="lX" depart="429" departLane="free" departSpeed="random" />
    <vehicle id="400202" type="Raleigh" route="V" depart="431" departLane="free" departSpeed="random" />
    <vehicle id="400203" type="Raleigh" route="Xl" depart="431" departLane="free" departSpeed="random" />
    <vehicle id="400204" type="Raleigh" route="XXVll" depart="435" departLane="free" departSpeed="random" />
    <vehicle id="400205" type="Raleigh" route="V" depart="441" departLane="free" departSpeed="random" />
    <vehicle id="400206" type="Raleigh" route="XXll" depart="441" departLane="free" departSpeed="random" />
    <vehicle id="400207" type="Raleigh" route="V" depart="449" departLane="free" departSpeed="random" />
    <vehicle id="400208" type="Raleigh" route="XXl" depart="449" departLane="free" departSpeed="random" />
    <vehicle id="400209" type="Raleigh" route="XVll" depart="450" departLane="free" departSpeed="random" />
    <vehicle id="400210" type="Raleigh" route="XXVll" depart="461" departLane="free" departSpeed="random" />
    <vehicle id="400211" type="Raleigh" route="Vlll" depart="464" departLane="free" departSpeed="random" />
    <vehicle id="400212" type="Raleigh" route="XVll" depart="464" departLane="free" departSpeed="random" />
    <vehicle id="400213" type="Raleigh" route="XXVll" depart="467" departLane="free" departSpeed="random" />
    <vehicle id="400214" type="Raleigh" route="Vlll" depart="468" departLane="free" departSpeed="random" />
    <vehicle id="400215" type="Raleigh" route="XXll" depart="468" departLane="free" departSpeed="random" />
    <vehicle id="400216" type="Raleigh" route="Vlll" depart="469" departLane="free" departSpeed="random" />
    <vehicle id="400217" type="Raleigh" route="lll" depart="470" departLane="free" departSpeed="random" />
    <vehicle id="400218" type="Raleigh" route="Vlll" depart="473" departLane="free" departSpeed="random" />
    <vehicle id="400219" type="Raleigh" route="Vlll" depart="475" departLane="free" departSpeed="random" />
    <vehicle id="400220" type="Raleigh" route="Xl" depart="482" departLane="free" departSpeed="random" />
    <vehicle id="400221" type="Raleigh" route="Xl" depart="485" departLane="free" departSpeed="random" />
    <vehicle id="400222" type="Raleigh" route="Vll" depart="487" departLane="free" departSpeed="random" />
    <vehicle id="400223" type="Raleigh" route="Vlll" depart="487" departLane="free" departSpeed="random" />
    <vehicle id="400224" type="Raleigh" route="lll" depart="489" departLane="free" departSpeed="random" />
    <vehicle id="400225" type="Raleigh" route="XXVll" depart="491" departLane="free" departSpeed="random" />
    <vehicle id="400226" type="Raleigh" route="Xl" depart="493" departLane="free" departSpeed="random" />
    <vehicle id="400227" type="Raleigh" route="XXll" depart="493" departLane="free" departSpeed="random" />
    <vehicle id="400228" type="Raleigh" route="X" depart="494" departLane="free" departSpeed="random" />
    <vehicle id="400229" type="Raleigh" route="V" depart="498" departLane="free" departSpeed="random" />
    <vehicle id="400230" type="Raleigh" route="Vlll" depart="498" departLane="free" departSpeed="random" />
    <vehicle id="400231" type="Raleigh" route="lll" depart="503" departLane="free" departSpeed="random" />
    <vehicle id="400232" type="Raleigh" route="V" depart="504" departLane="free" departSpeed="random" />
    <vehicle id="400233" type="Raleigh" route="V" depart="506" departLane="free" departSpeed="random" />
    <vehicle id="400234" type="Raleigh" route="Vlll" depart="506" departLane="free" departSpeed="random" />
    <vehicle id="400235" type="Raleigh" route="XXl" depart="507" departLane="free" departSpeed="random" />
    <vehicle id="400236" type="Raleigh" route="XXll" depart="509" departLane="free" departSpeed="random" />
    <vehicle id="400237" type="Raleigh" route="Vlll" depart="518" departLane="free" departSpeed="random" />
    <vehicle id="400238" type="Raleigh" route="V" depart="523" departLane="free" departSpeed="random" />
    <vehicle id="400239" type="Raleigh" route="lX" depart="525" departLane="free" departSpeed="random" />
    <vehicle id="400240" type="Raleigh" route="Vlll" depart="526" departLane="free" departSpeed="random" />
    <vehicle id="400241" type="Raleigh" route="XXll" depart="526" departLane="free" departSpeed="random" />
    <vehicle id="400242" type="Raleigh" route="ll" depart="527" departLane="free" departSpeed="random" />
    <vehicle id="400243" type="Raleigh" route="XXll" depart="527" departLane="free" departSpeed="random" />
    <vehicle id="400244" type="Raleigh" route="X" depart="528" departLane="free" departSpeed="random" />
    <vehicle id="400245" type="Raleigh" route="XVl" depart="530" departLane="free" departSpeed="random" />
    <vehicle id="400246" type="Raleigh" route="Vlll" depart="532" departLane="free" departSpeed="random" />
    <vehicle id="400247" type="Raleigh" route="Vl" depart="534" departLane="free" departSpeed="random" />
    <vehicle id="400248" type="Raleigh" route="ll" depart="535" departLane="free" departSpeed="random" />
    <vehicle id="400249" type="Raleigh" route="l" depart="541" departLane="free" departSpeed="random" />
    <vehicle id="400250" type="Raleigh" route="XXll" depart="541" departLane="free" departSpeed="random" />
    <vehicle id="400251" type="Raleigh" route="Vlll" depart="544" departLane="free" departSpeed="random" />
    <vehicle id="400252" type="Raleigh" route="XXVll" depart="544" departLane="free" departSpeed="random" />
    <vehicle id="400253" type="Raleigh" route="Vlll" depart="545" departLane="free" departSpeed="random" />
    <vehicle id="400254" type="Raleigh" route="XXV" depart="549" departLane="free" departSpeed="random" />
    <vehicle id="400255" type="Raleigh" route="V" depart="551" departLane="free" departSpeed="random" />
    <vehicle id="400256" type="Raleigh" route="Vl" depart="552" departLane="free" departSpeed="random" />
    <vehicle id="400257" type="Raleigh" route="Vlll" depart="552" departLane="free" departSpeed="random" />
    <vehicle id="400258" type="Raleigh" route="lll" depart="556" departLane="free" departSpeed="random" />
    <vehicle id="400259" type="Raleigh" route="lll" depart="560" departLane="free" departSpeed="random" />
    <vehicle id="400260" type="Raleigh" route="Xl" depart="564" departLane="free" departSpeed="random" />
    <vehicle id="400261" type="Raleigh" route="XVl" depart="565" departLane="free" departSpeed="random" />
    <vehicle id="400262" type="Raleigh" route="Vll" depart="566" departLane="free" departSpeed="random" />
    <vehicle id="400263" type="Raleigh" route="V" depart="570" departLane="free" departSpeed="random" />
    <vehicle id="400264" type="Raleigh" route="XVll" depart="571" departLane="free" departSpeed="random" />