<routes>
        
            <vType id="Raleigh" accel="0.8" decel="1.5" sigma="0.5" length="1.6" maxSpeed="5.8" color="255,255,0" guiShape="bicycle" vClass="bicycle" emissionClass="zero"/>  
        
            <route id="l" edges="a_1 1_2 2_3 3_10 10_9 9_c"/>
            <route id="ll" edges="a_1 1_2 2_3 3_11 11_12 12_d"/>
            <route id="lll" edges="a_1 1_2 2_3 3_4 4_5 5_6 6_14 14_13 13_e"/>
            <route id="lV" edges="a_1 1_2 2_3 3_4 4_5 5_6 6_15 15_16 16_f"/>
            <route id="V" edges="a_1 1_2 2_3 3_4 4_5 5_6 6_7 7_8 8_b"/>

            <route id="Vl" edges="b_8 8_7 7_6 6_15 15_16 16_f"/>
            <route id="Vll" edges="b_8 8_7 7_6 6_14 14_13 13_e"/>
            <route id="Vlll" edges="b_8 8_7 7_6 6_5 5_4 4_3 3_2 2_1 1_a"/>
            <route id="lX" edges="b_8 8_7 7_6 6_5 5_4 4_3 3_11 11_12 12_d"/> 
            <route id="X" edges="b_8 8_7 7_6 6_5 5_4 4_3 3_10 10_9 9_c"/>
            
            <route id="Xl" edges="d_12 12_11 11_3 3_10 10_9 9_c"/>
            <route id="Xll" edges="d_12 12_11 11_3  3_2 2_1 1_a "/>
            <route id="Xlll" edges="d_12 12_11 11_3 3_4 4_5 5_6 6_7 7_8 8_b"/>
            <route id="XlV" edges="d_12 12_11 11_3  3_4 4_5 5_6 6_15 15_16 16_f"/> 
            <route id="XV" edges="d_12 12_11 11_3 3_4 4_5 5_6 6_14 14_13 13_e"/>
            
            <route id="XVl" edges="c_9 9_10 10_3 3_2 2_1 1_a"/>
            <route id="XVll" edges="c_9 9_10 10_3 3_11 11_12 12_d"/>
            <route id="XVlll" edges="c_9 9_10 10_3 3_4 4_5 5_6 6_15 15_16 16_f"/>
            <route id="XlX" edges="c_9 9_10 10_3 3_4 4_5 5_6 6_14 14_13 13_e"/> 
            <route id="XX" edges="c_9 9_10 10_3 3_4 4_5 5_6 6_7 7_8 8_b"/>
            
            <route id="XXl" edges="f_16 16_15 15_6 6_7 7_8 8_b"/>
            <route id="XXll" edges="f_16 16_15 15_6 6_14 14_13 13_e"/>
            <route id="XXlll" edges="f_16 16_15 15_6 6_5 5_4 4_3 3_11 11_12 12_d"/>
            <route id="XXlV" edges="f_16 16_15 15_6 6_5 5_4 4_3 3_10 10_9 9_c"/> 
            <route id="XXV" edges="f_16 16_15 15_6 6_5 5_4 4_3 3_2 2_1 1_a"/>
            
            <route id="XXVl" edges="e_13 13_14 14_6 6_7 7_8 8_b"/>
            <route id="XXVll" edges="e_13 13_14 14_6 6_15 15_16 16_f"/>
            <route id="XXVlll" edges="e_13 13_14 14_6 6_5 5_4 4_3 3_11 11_12 12_d"/>
            <route id="XXlX" edges="e_13 13_14 14_6 6_5 5_4 4_3 3_10 10_9 9_c"/> 
            <route id="XXX" edges="e_13 13_14 14_6 6_5 5_4 4_3 3_2 2_1 1_a"/>	
                        
        
    <vehicle id="400000" type="Raleigh" route="Vlll" depart="2" departLane="free" departSpeed="random" />
    <vehicle id="400001" type="Raleigh" route="V" depart="4" departLane="free" departSpeed="random" />
    <vehicle id="400002" type="Raleigh" route="V" depart="5" departLane="free" departSpeed="random" />
    <vehicle id="400003" type="Raleigh" route="Vlll" depart="8" departLane="free" departSpeed="random" />
    <vehicle id="400004" type="Raleigh" route="XVll" depart="8" departLane="free" departSpeed="random" />
    <vehicle id="400005" type="Raleigh" route="XXll" depart="8" departLane="free" departSpeed="random" />
    <vehicle id="400006" type="Raleigh" route="Xl" depart="9" departLane="free" departSpeed="random" />
    <vehicle id="400007" type="Raleigh" route="XXll" depart="9" departLane="free" departSpeed="random" />
    <vehicle id="400008" type="Raleigh" route="Vlll" depart="10" departLane="free" departSpeed="random" />
    <vehicle id="400009" type="Raleigh" route="XXll" depart="12" departLane="free" departSpeed="random" />
    <vehicle id="400010" type="Raleigh" route="Vlll" depart="15" departLane="free" departSpeed="random" />
    <vehicle id="400011" type="Raleigh" route="XlV" depart="15" departLane="free" departSpeed="random" />
    <vehicle id="400012" type="Raleigh" route="Vlll" depart="18" departLane="free" departSpeed="random" />
    <vehicle id="400013" type="Raleigh" route="Xl" depart="20" departLane="free" departSpeed="random" />
    <vehicle id="400014" type="Raleigh" route="ll" depart="21" departLane="free" departSpeed="random" />
    <vehicle id="400015" type="Raleigh" route="V" depart="21" departLane="free" departSpeed="random" />
    <vehicle id="400016" type="Raleigh" route="Vll" depart="25" departLane="free" departSpeed="random" />
    <vehicle id="400017" type="Raleigh" route="Xl" depart="27" departLane="free" departSpeed="random" />
    <vehicle id="400018" type="Raleigh" route="V" depart="31" departLane="free" departSpeed="random" />
    <vehicle id="400019" type="Raleigh" route="Vlll" depart="31" departLane="free" departSpeed="random" />
    <vehicle id="400020" type="Raleigh" route="XXll" depart="33" departLane="free" departSpeed="random" />
    <vehicle id="400021" type="Raleigh" route="XVll" depart="34" departLane="free" departSpeed="random" />
    <vehicle id="400022" type="Raleigh" route="XVll" depart="35" departLane="free" departSpeed="random" />
    <vehicle id="400023" type="Raleigh" route="Vl" depart="36" departLane="free" departSpeed="random" />
    <vehicle id="400024" type="Raleigh" route="V" depart="40" departLane="free" departSpeed="random" />
    <vehicle id="400025" type="Raleigh" route="ll" depart="42" departLane="free" departSpeed="random" />
    <vehicle id="400026" type="Raleigh" route="Vl" depart="42" departLane="free" departSpeed="random" />
    <vehicle id="400027" type="Raleigh" route="V" depart="45" departLane="free" departSpeed="random" />
    <vehicle id="400028" type="Raleigh" route="Vll" depart="45" departLane="free" departSpeed="random" />
    <vehicle id="400029" type="Raleigh" route="XVl" depart="45" departLane="free" departSpeed="random" />
    <vehicle id="400030" type="Raleigh" route="Vlll" depart="46" departLane="free" departSpeed="random" />
    <vehicle id="400031" type="Raleigh" route="V" depart="47" departLane="free" departSpeed="random" />
    <vehicle id="400032" type="Raleigh" route="Vlll" depart="47" departLane="free" departSpeed="random" />
    <vehicle id="400033" type="Raleigh" route="Xl" depart="47" departLane="free" departSpeed="random" />
    <vehicle id="400034" type="Raleigh" route="ll" depart="48" departLane="free" departSpeed="random" />
    <vehicle id="400035" type="Raleigh" route="V" depart="48" departLane="free" departSpeed="random" />
    <vehicle id="400036" type="Raleigh" route="Vlll" depart="48" departLane="free" departSpeed="random" />
    <vehicle id="400037" type="Raleigh" route="V" depart="49" departLane="free" departSpeed="random" />
    <vehicle id="400038" type="Raleigh" route="XXll" depart="53" departLane="free" departSpeed="random" />
    <vehicle id="400039" type="Raleigh" route="V" depart="54" departLane="free" departSpeed="random" />
    <vehicle id="400040" type="Raleigh" route="V" depart="55" departLane="free" departSpeed="random" />
    <vehicle id="400041" type="Raleigh" route="XXVll" depart="55" departLane="free" departSpeed="random" />
    <vehicle id="400042" type="Raleigh" route="V" depart="56" departLane="free" departSpeed="random" />
    <vehicle id="400043" type="Raleigh" route="Vl" depart="56" departLane="free" departSpeed="random" />
    <vehicle id="400044" type="Raleigh" route="Xl" depart="58" departLane="free" departSpeed="random" />
    <vehicle id="400045" type="Raleigh" route="V" depart="60" departLane="free" departSpeed="random" />
    <vehicle id="400046" type="Raleigh" route="Vlll" depart="62" departLane="free" departSpeed="random" />
    <vehicle id="400047" type="Raleigh" route="XVl" depart="62" departLane="free" departSpeed="random" />
    <vehicle id="400048" type="Raleigh" route="V" depart="67" departLane="free" departSpeed="random" />
    <vehicle id="400049" type="Raleigh" route="l" depart="68" departLane="free" departSpeed="random" />
    <vehicle id="400050" type="Raleigh" route="XXll" depart="69" departLane="free" departSpeed="random" />
    <vehicle id="400051" type="Raleigh" route="Vlll" depart="70" departLane="free" departSpeed="random" />
    <vehicle id="400052" type="Raleigh" route="Vl" depart="71" departLane="free" departSpeed="random" />
    <vehicle id="400053" type="Raleigh" route="Vlll" depart="72" departLane="free" departSpeed="random" />
    <vehicle id="400054" type="Raleigh" route="Xl" depart="72" departLane="free" departSpeed="random" />
    <vehicle id="400055" type="Raleigh" route="Vlll" depart="73" departLane="free" departSpeed="random" />
    <vehicle id="400056" type="Raleigh" route="Vlll" depart="76" departLane="free" departSpeed="random" />
    <vehicle id="400057" type="Raleigh" route="Xl" depart="77" departLane="free" departSpeed="random" />
    <vehicle id="400058" type="Raleigh" route="XVll" depart="77" departLane="free" departSpeed="random" />
    <vehicle id="400059" type="Raleigh" route="V" depart="78" departLane="free" departSpeed="random" />
    <vehicle id="400060" type="Raleigh" route="Xl" depart="79" departLane="free" departSpeed="random" />
    <vehicle id="400061" type="Raleigh" route="lll" depart="80" departLane="free" departSpeed="random" />
    <vehicle id="400062" type="Raleigh" route="V" depart="80" departLane="free" departSpeed="random" />
    <vehicle id="400063" type="Raleigh" route="Vll" depart="80" departLane="free" departSpeed="random" />
    <vehicle id="400064" type="Raleigh" route="Vlll" depart="80" departLane="free" departSpeed="random" />
    <vehicle id="400065" type="Raleigh" route="X" depart="80" departLane="free" departSpeed="random" />
    <vehicle id="400066" type="Raleigh" route="Xlll" depart="80" departLane="free" departSpeed="random" />
    <vehicle id="400067" type="Raleigh" route="lV" depart="82" departLane="free" departSpeed="random" />
    <vehicle id="400068" type="Raleigh" route="Vlll" depart="83" departLane="free" departSpeed="random" />
    <vehicle id="400069" type="Raleigh" route="XVll" depart="88" departLane="free" departSpeed="random" />
    <vehicle id="400070" type="Raleigh" route="Vlll" depart="91" departLane="free" departSpeed="random" />
    <vehicle id="400071" type="Raleigh" route="XXVll" depart="91" departLane="free" departSpeed="random" />
    <vehicle id="400072" type="Raleigh" route="Vl" depart="94" departLane="free" departSpeed="random" />
    <vehicle id="400073" type="Raleigh" route="XX" depart="96" departLane="free" departSpeed="random" />
    <vehicle id="400074" type="Raleigh" route="l" depart="97" departLane="free" departSpeed="random" />
    <vehicle id="400075" type="Raleigh" route="ll" depart="97" departLane="free" departSpeed="random" />
    <vehicle id="400076" type="Raleigh" route="XXVll" depart="98" departLane="free" departSpeed="random" />
    <vehicle id="400077" type="Raleigh" route="ll" depart="99" departLane="free" departSpeed="random" />
    <vehicle id="400078" type="Raleigh" route="V" depart="100" departLane="free" departSpeed="random" />
    <vehicle id="400079" type="Raleigh" route="Vlll" depart="101" departLane="free" departSpeed="random" />
    <vehicle id="400080" type="Raleigh" route="Vlll" depart="102" departLane="free" departSpeed="random" />
    <vehicle id="400081" type="Raleigh" route="XXVll" depart="107" departLane="free" departSpeed="random" />
    <vehicle id="400082" type="Raleigh" route="V" depart="108" departLane="free" departSpeed="random" />
    <vehicle id="400083" type="Raleigh" route="V" depart="109" departLane="free" departSpeed="random" />
    <vehicle id="400084" type="Raleigh" route="Xl" depart="109" departLane="free" departSpeed="random" />
    <vehicle id="400085" type="Raleigh" route="Xl" depart="110" departLane="free" departSpeed="random" />
    <vehicle id="400086" type="Raleigh" route="l" depart="111" departLane="free" departSpeed="random" />
    <vehicle id="400087" type="Raleigh" route="XVl" depart="112" departLane="free" departSpeed="random" />
    <vehicle id="400088" type="Raleigh" route="XXVll" depart="112" departLane="free" departSpeed="random" />
    <vehicle id="400089" type="Raleigh" route="Xl" depart="113" departLane="free" departSpeed="random" />
    <vehicle id="400090" type="Raleigh" route="Xl" depart="115" departLane="free" departSpeed="random" />
    <vehicle id="400091" type="Raleigh" route="Vlll" depart="116" departLane="free" departSpeed="random" />
    <vehicle id="400092" type="Raleigh" route="V" depart="119" departLane="free" departSpeed="random" />
    <vehicle id="400093" type="Raleigh" route="Vlll" depart="121" departLane="free" departSpeed="random" />
    <vehicle id="400094" type="Raleigh" route="Vll" depart="122" departLane="free" departSpeed="random" />
    <vehicle id="400095" type="Raleigh" route="XXll" depart="123" departLane="free" departSpeed="random" />
    <vehicle id="400096" type="Raleigh" route="Vlll" depart="124" departLane="free" departSpeed="random" />
    <vehicle id="400097" type="Raleigh" route="lll" depart="126" departLane="free" departSpeed="random" />
    <vehicle id="400098" type="Raleigh" route="lX" depart="127" departLane="free" departSpeed="random" />
    <vehicle id="400099" type="Raleigh" route="V" depart="128" departLane="free" departSpeed="random" />
    <vehicle id="400100" type="Raleigh" route="lX" depart="129" departLane="free" departSpeed="random" />
    <vehicle id="400101" type="Raleigh" route="V" depart="131" departLane="free" departSpeed="random" />
    <vehicle id="400102" type="Raleigh" route="ll" depart="132" departLane="free" departSpeed="random" />
    <vehicle id="400103" type="Raleigh" route="Vl" depart="132" departLane="free" departSpeed="random" />
    <vehicle id="400104" type="Raleigh" route="XVll" depart="133" departLane="free" departSpeed="random" />
    <vehicle id="400105" type="Raleigh" route="XXVll" depart="133" departLane="free" departSpeed="random" />
    <vehicle id="400106" type="Raleigh" route="Xl" depart="134" departLane="free" departSpeed="random" />
    <vehicle id="400107" type="Raleigh" route="XVll" depart="134" departLane="free" departSpeed="random" />
    <vehicle id="400108" type="Raleigh" route="XXll" depart="135" departLane="free" departSpeed="random" />
    <vehicle id="400109" type="Raleigh" route="ll" depart="138" departLane="free" departSpeed="random" />
    <vehicle id="400110" type="Raleigh" route="lV" depart="139" departLane="free" departSpeed="random" />
    <vehicle id="400111" type="Raleigh" route="XXVll" depart="139" departLane="free" departSpeed="random" />
    <vehicle id="400112" type="Raleigh" route="XVll" depart="140" departLane="free" departSpeed="random" />
    <vehicle id="400113" type="Raleigh" route="V" depart="142" departLane="free" departSpeed="random" />
    <vehicle id="400114" type="Raleigh" route="V" depart="144" departLane="free" departSpeed="random" />
    <vehicle id="400115" type="Raleigh" route="Vll" depart="145" departLane="free" departSpeed="random" />
    <vehicle id="400116" type="Raleigh" route="Vlll" depart="145" departLane="free" departSpeed="random" />
    <vehicle id="400117" type="Raleigh" route="lll" depart="149" departLane="free" departSpeed="random" />
    <vehicle id="400118" type="Raleigh" route="V" depart="150" departLane="free" departSpeed="random" />
    <vehicle id="400119" type="Raleigh" route="Vl" depart="151" departLane="free" departSpeed="random" />
    <vehicle id="400120" type="Raleigh" route="V" depart="153" departLane="free" departSpeed="random" />
    <vehicle id="400121" type="Raleigh" route="Xl" depart="155" departLane="free" departSpeed="random" />
    <vehicle id="400122" type="Raleigh" route="V" depart="158" departLane="free" departSpeed="random" />
    <vehicle id="400123" type="Raleigh" route="V" depart="159" departLane="free" departSpeed="random" />
    <vehicle id="400124" type="Raleigh" route="Xl" depart="160" departLane="free" departSpeed="random" />
    <vehicle id="400125" type="Raleigh" route="V" depart="161" departLane="free" departSpeed="random" />
    <vehicle id="400126" type="Raleigh" route="l" depart="163" departLane="free" departSpeed="random" />
    <vehicle id="400127" type="Raleigh" route="V" depart="163" departLane="free" departSpeed="random" />
    <vehicle id="400128" type="Raleigh" route="lX" depart="164" departLane="free" departSpeed="random" />
    <vehicle id="400129" type="Raleigh" route="Vlll" depart="167" departLane="free" departSpeed="random" />
    <vehicle id="400130" type="Raleigh" route="X" depart="169" departLane="free" departSpeed="random" />
    <vehicle id="400131" type="Raleigh" route="Xl" depart="169" departLane="free" departSpeed="random" />
    <vehicle id="400132" type="Raleigh" route="Vlll" depart="170" departLane="free" departSpeed="random" />
    <vehicle id="400133" type="Raleigh" route="V" depart="171" departLane="free" departSpeed="random" />
    <vehicle id="400134" type="Raleigh" route="lll" depart="176" departLane="free" departSpeed="random" />
    <vehicle id="400135" type="Raleigh" route="Vlll" depart="176" departLane="free" departSpeed="random" />
    <vehicle id="400136" type="Raleigh" route="XXVl" depart="176" departLane="free" departSpeed="random" />
    <vehicle id="400137" type="Raleigh" route="V" depart="177" departLane="free" departSpeed="random" />
    <vehicle id="400138" type="Raleigh" route="V" depart="178" departLane="free" departSpeed="random" />
    <vehicle id="400139" type="Raleigh" route="V" depart="179" departLane="free" departSpeed="random" />
    <vehicle id="400140" type="Raleigh" route="V" depart="181" departLane="free" departSpeed="random" />
    <vehicle id="400141" type="Raleigh" route="V" depart="185" departLane="free" departSpeed="random" />
    <vehicle id="400142" type="Raleigh" route="Vlll" depart="185" departLane="free" departSpeed="random" />
    <vehicle id="400143" type="Raleigh" route="XXll" depart="186" departLane="free" departSpeed="random" />
    <vehicle id="400144" type="Raleigh" route="XX" depart="187" departLane="free" departSpeed="random" />
    <vehicle id="400145" type="Raleigh" route="lX" depart="191" departLane="free" departSpeed="random" />
    <vehicle id="400146" type="Raleigh" route="V" depart="193" departLane="free" departSpeed="random" />
    <vehicle id="400147" type="Raleigh" route="V" depart="194" departLane="free" departSpeed="random" />
    <vehicle id="400148" type="Raleigh" route="l" depart="195" departLane="free" departSpeed="random" />
    <vehicle id="400149" type="Raleigh" route="Vlll" depart="197" departLane="free" departSpeed="random" />
    <vehicle id="400150" type="Raleigh" route="ll" depart="198" departLane="free" departSpeed="random" />
    <vehicle id="400151" type="Raleigh" route="V" depart="198" departLane="free" departSpeed="random" />
    <vehicle id="400152" type="Raleigh" route="Vlll" depart="201" departLane="free" departSpeed="random" />
    <vehicle id="400153" type="Raleigh" route="Vlll" depart="202" departLane="free" departSpeed="random" />
    <vehicle id="400154" type="Raleigh" route="Vlll" depart="203" departLane="free" departSpeed="random" />
    <vehicle id="400155" type="Raleigh" route="XXVll" depart="203" departLane="free" departSpeed="random" />
    <vehicle id="400156" type="Raleigh" route="Vlll" depart="205" departLane="free" departSpeed="random" />
    <vehicle id="400157" type="Raleigh" route="XXVll" depart="205" departLane="free" departSpeed="random" />
    <vehicle id="400158" type="Raleigh" route="Vlll" depart="208" departLane="free" departSpeed="random" />
    <vehicle id="400159" type="Raleigh" route="Vlll" depart="210" departLane="free" departSpeed="random" />
    <vehicle id="400160" type="Raleigh" route="Vll" depart="211" departLane="free" departSpeed="random" />
    <vehicle id="400161" type="Raleigh" route="lV" depart="213" departLane="free" departSpeed="random" />
    <vehicle id="400162" type="Raleigh" route="V" depart="213" departLane="free" departSpeed="random" />
    <vehicle id="400163" type="Raleigh" route="XVll" depart="214" departLane="free" departSpeed="random" />
    <vehicle id="400164" type="Raleigh" route="Vlll" depart="217" departLane="free" departSpeed="random" />
    <vehicle id="400165" type="Raleigh" route="Vlll" depart="219" departLane="free" departSpeed="random" />
    <vehicle id="400166" type="Raleigh" route="V" depart="221" departLane="free" departSpeed="random" />
    <vehicle id="400167" type="Raleigh" route="Xl" depart="221" departLane="free" departSpeed="random" />
    <vehicle id="400168" type="Raleigh" route="XVl" depart="222" departLane="free" departSpeed="random" />
    <vehicle id="400169" type="Raleigh" route="Vlll" depart="224" departLane="free" departSpeed="random" />
    <vehicle id="400170" type="Raleigh" route="XVll" depart="224" departLane="free" departSpeed="random" />
    <vehicle id="400171" type="Raleigh" route="V" depart="227" departLane="free" departSpeed="random" />
    <vehicle id="400172" type="Raleigh" route="V" depart="231" departLane="free" departSpeed="random" />
    <vehicle id="400173" type="Raleigh" route="Vll" depart="232" departLane="free" departSpeed="random" />
    <vehicle id="400174" type="Raleigh" route="Vlll" depart="232" departLane="free" departSpeed="random" />
    <vehicle id="400175" type="Raleigh" route="V" depart="233" departLane="free" departSpeed="random" />
    <vehicle id="400176" type="Raleigh" route="V" depart="235" departLane="free" departSpeed="random" />
    <vehicle id="400177" type="Raleigh" route="Vlll" depart="235" departLane="free" departSpeed="random" />
    <vehicle id="400178" type="Raleigh" route="X" depart="235" departLane="free" departSpeed="random" />
    <vehicle id="400179" type="Raleigh" route="XVll" depart="235" departLane="free" departSpeed="random" />
    <vehicle id="400180" type="Raleigh" route="Vlll" depart="236" departLane="free" departSpeed="random" />
    <vehicle id="400181" type="Raleigh" route="V" depart="237" departLane="free" departSpeed="random" />
    <vehicle id="400182" type="Raleigh" route="Vlll" depart="237" departLane="free" departSpeed="random" />
    <vehicle id="400183" type="Raleigh" route="Vlll" depart="238" departLane="free" departSpeed="random" />
    <vehicle id="400184" type="Raleigh" route="lll" depart="239" departLane="free" departSpeed="random" />
    <vehicle id="400185" type="Raleigh" route="Vl" depart="239" departLane="free" departSpeed="random" />
    <vehicle id="400186" type="Raleigh" route="XXVl" depart="239" departLane="free" departSpeed="random" />
    <vehicle id="400187" type="Raleigh" route="Xl" depart="240" departLane="free" departSpeed="random" />
    <vehicle id="400188" type="Raleigh" route="V" depart="241" departLane="free" departSpeed="random" />
    <vehicle id="400189" type="Raleigh" route="Vlll" depart="241" departLane="free" departSpeed="random" />
    <vehicle id="400190" type="Raleigh" route="V" depart="244" departLane="free" departSpeed="random" />
    <vehicle id="400191" type="Raleigh" route="V" depart="245" departLane="free" departSpeed="random" />
    <vehicle id="400192" type="Raleigh" route="XVll" depart="245" departLane="free" departSpeed="random" />
    <vehicle id="400193" type="Raleigh" route="Vlll" depart="248" departLane="free" departSpeed="random" />
    <vehicle id="400194" type="Raleigh" route="lX" depart="248" departLane="free" departSpeed="random" />
    <vehicle id="400195" type="Raleigh" route="V" depart="249" departLane="free" departSpeed="random" />
    <vehicle id="400196" type="Raleigh" route="ll" depart="251" departLane="free" departSpeed="random" />
    <vehicle id="400197" type="Raleigh" route="Vlll" depart="251" departLane="free" departSpeed="random" />
    <vehicle id="400198" type="Raleigh" route="V" depart="252" departLane="free" departSpeed="random" />
    <vehicle id="400199" type="Raleigh" route="XVll" depart="253" departLane="free" departSpeed="random" />
    <vehicle id="400200" type="Raleigh" route="lX" depart="255" departLane="free" departSpeed="random" />
    <vehicle id="400201" type="Raleigh" route="V" depart="257" departLane="free" departSpeed="random" />
    <vehicle id="400202" type="Raleigh" route="XXVll" depart="257" departLane="free" departSpeed="random" />
    <vehicle id="400203" type="Raleigh" route="Vlll" depart="259" departLane="free" departSpeed="random" />
    <vehicle id="400204" type="Raleigh" route="XXVll" depart="259" departLane="free" departSpeed="random" />
    <vehicle id="400205" type="Raleigh" route="Vlll" depart="261" departLane="free" departSpeed="random" />
    <vehicle id="400206" type="Raleigh" route="XXVll" depart="261" departLane="free" departSpeed="random" />
    <vehicle id="400207" type="Raleigh" route="V" depart="262" departLane="free" departSpeed="random" />
    <vehicle id="400208" type="Raleigh" route="V" depart="263" departLane="free" departSpeed="random" />
    <vehicle id="400209" type="Raleigh" route="XXll" depart="263" departLane="free" departSpeed="random" />
    <vehicle id="400210" type="Raleigh" route="Vlll" depart="264" departLane="free" departSpeed="random" />
    <vehicle id="400211" type="Raleigh" route="XXVll" depart="268" departLane="free" departSpeed="random" />
    <vehicle id="400212" type="Raleigh" route="Vll" depart="271" departLane="free" departSpeed="random" />
    <vehicle id="400213" type="Raleigh" route="Vlll" depart="274" departLane="free" departSpeed="random" />
    <vehicle id="400214" type="Raleigh" route="lX" depart="275" departLane="free" departSpeed="random" />
    <vehicle id="400215" type="Raleigh" route="V" depart="276" departLane="free" departSpeed="random" />
    <vehicle id="400216" type="Raleigh" route="V" depart="278" departLane="free" departSpeed="random" />
    <vehicle id="400217" type="Raleigh" route="XXVll" depart="280" departLane="free" departSpeed="random" />
    <vehicle id="400218" type="Raleigh" route="l" depart="281" departLane="free" departSpeed="random" />
    <vehicle id="400219" type="Raleigh" route="Vlll" depart="281" departLane="free" departSpeed="random" />
    <vehicle id="400220" type="Raleigh" route="Xl" depart="285" departLane="free" departSpeed="random" />
    <vehicle id="400221" type="Raleigh" route="V" depart="286" departLane="free" departSpeed="random" />
    <vehicle id="400222" type="Raleigh" route="Vlll" depart="288" departLane="free" departSpeed="random" />
    <vehicle id="400223" type="Raleigh" route="XXll" depart="289" departLane="free" departSpeed="random" />
    <vehicle id="400224" type="Raleigh" route="Vlll" depart="290" departLane="free" departSpeed="random" />
    <vehicle id="400225" type="Raleigh" route="XXl" depart="290" departLane="free" departSpeed="random" />
    <vehicle id="400226" type="Raleigh" route="Vlll" depart="294" departLane="free" departSpeed="random" />
    <vehicle id="400227" type="Raleigh" route="XXll" depart="295" departLane="free" departSpeed="random" />
    <vehicle id="400228" type="Raleigh" route="ll" depart="296" departLane="free" departSpeed="random" />
    <vehicle id="400229" type="Raleigh" route="V" depart="296" departLane="free" departSpeed="random" />
    <vehicle id="400230" type="Raleigh" route="Xl" depart="296" departLane="free" departSpeed="random" />
    <vehicle id="400231" type="Raleigh" route="V" depart="299" departLane="free" departSpeed="random" />
    <vehicle id="400232" type="Raleigh" route="Vl" depart="299" departLane="free" departSpeed="random" />
    <vehicle id="400233" type="Raleigh" route="Vlll" depart="300" departLane="free" departSpeed="random" />
    <vehicle id="400234" type="Raleigh" route="lll" depart="301" departLane="free" departSpeed="random" />
    <vehicle id="400235" type="Raleigh" route="lV" depart="304" departLane="free" departSpeed="random" />
    <vehicle id="400236" type="Raleigh" route="Vl" depart="304" departLane="free" departSpeed="random" />
    <vehicle id="400237" type="Raleigh" route="XVll" depart="304" departLane="free" departSpeed="random" />
    <vehicle id="400238" type="Raleigh" route="Vlll" depart="305" departLane="free" departSpeed="random" />
    <vehicle id="400239" type="Raleigh" route="l" depart="306" departLane="free" departSpeed="random" />
    <vehicle id="400240" type="Raleigh" route="lll" depart="307" departLane="free" departSpeed="random" />
    <vehicle id="400241" type="Raleigh" route="XXVll" depart="307" departLane="free" departSpeed="random" />
    <vehicle id="400242" type="Raleigh" route="X" depart="308" departLane="free" departSpeed="random" />
    <vehicle id="400243" type="Raleigh" route="V" depart="310" departLane="free" departSpeed="random" />
    <vehicle id="400244" type="Raleigh" route="lX" depart="310" departLane="free" departSpeed="random" />
    <vehicle id="400245" type="Raleigh" route="ll" depart="312" departLane="free" departSpeed="random" />
    <vehicle id="400246" type="Raleigh" route="XX" depart="312" departLane="free" departSpeed="random" />
    <vehicle id="400247" type="Raleigh" route="lll" depart="314" departLane="free" departSpeed="random" />
    <vehicle id="400248" type="Raleigh" route="Vlll" depart="314" departLane="free" departSpeed="random" />
    <vehicle id="400249" type="Raleigh" route="Vlll" depart="318" departLane="free" departSpeed="random" />
    <vehicle id="400250" type="Raleigh" route="XVll" depart="318" departLane="free" departSpeed="random" />
    <vehicle id="400251" type="Raleigh" route="lll" depart="319" departLane="free" departSpeed="random" />
    <vehicle id="400252" type="Raleigh" route="V" depart="319" departLane="free" departSpeed="random" />
    <vehicle id="400253" type="Raleigh" route="Vlll" depart="320" departLane="free" departSpeed="random" />
    <vehicle id="400254" type="Raleigh" route="XXVll" depart="320" departLane="free" departSpeed="random" />
    <vehicle id="400255" type="Raleigh" route="X" depart="322" departLane="free" departSpeed="random" />
    <vehicle id="400256" type="Raleigh" route="XXVl" depart="322" departLane="free" departSpeed="random" />
    <vehicle id="400257" type="Raleigh" route="V" depart="325" departLane="free" departSpeed="random" />