<routes>
        
            <vType id="Raleigh" accel="0.8" decel="1.5" sigma="0.5" length="1.6" maxSpeed="5.8" color="255,255,0" guiShape="bicycle" vClass="bicycle" emissionClass="zero"/>  
        
            <route id="l" edges="a_3 3_c"/>
            <route id="ll" edges="a_3 3_d"/>
            <route id="lll" edges="a_3 3_6 6_e"/>
            <route id="lV" edges="a_3 3_6 6_f"/>
            <route id="V" edges="a_3 3_6 6_b"/>

            <route id="Vl" edges="b_6 6_f"/>
            <route id="Vll" edges="b_6 6_e"/>
            <route id="Vlll" edges="b_6 6_3 3_a"/>
            <route id="lX" edges="b_6 6_3 3_d"/> 
            <route id="X" edges="b_6 6_3 3_c"/>
            
            
            <route id="Xl" edges="d_3 3_c"/>
            <route id="Xll" edges="d_3 3_a "/>
            <route id="Xlll" edges="d_3 3_6 6_b"/>
            <route id="XlV" edges="d_3 3_6 6_f"/> 
            <route id="XV" edges="d_3 3_6 6_e"/>
            
            <route id="XVl" edges="c_3 3_a"/>
            <route id="XVll" edges="c_3 3_d"/>
            <route id="XVlll" edges="c_3 3_6 6_f"/>
            <route id="XlX" edges="c_3 3_6 6_e"/> 
            <route id="XX" edges="c_3 3_6 6_b"/>
            
            <route id="XXl" edges="f_6 6_b"/>
            <route id="XXll" edges="f_6 6_e"/>
            <route id="XXlll" edges="f_6 6_3 3_d"/>
            <route id="XXlV" edges="f_6 6_3 3_c"/> 
            <route id="XXV" edges="f_6 6_3 3_a"/>
            
            <route id="XXVl"  edges="e_6 6_b"/>
            <route id="XXVll" edges="e_6 6_f"/>
            <route id="XXVlll" edges="e_6 6_3 3_d"/>
            <route id="XXlX" edges="e_6 6_3 3_c"/> 
            <route id="XXX" edges="e_6 6_3 3_a"/>	
                        
        
    <vehicle id="400000" type="Raleigh" route="V" depart="12" departLane="free" departSpeed="random" />
    <vehicle id="400001" type="Raleigh" route="Vlll" depart="14" departLane="free" departSpeed="random" />
    <vehicle id="400002" type="Raleigh" route="XXll" depart="16" departLane="free" departSpeed="random" />
    <vehicle id="400003" type="Raleigh" route="lX" depart="22" departLane="free" departSpeed="random" />
    <vehicle id="400004" type="Raleigh" route="XVlll" depart="26" departLane="free" departSpeed="random" />
    <vehicle id="400005" type="Raleigh" route="Vlll" depart="29" departLane="free" departSpeed="random" />
    <vehicle id="400006" type="Raleigh" route="Vl" depart="30" departLane="free" departSpeed="random" />
    <vehicle id="400007" type="Raleigh" route="Vll" depart="33" departLane="free" departSpeed="random" />
    <vehicle id="400008" type="Raleigh" route="V" depart="34" departLane="free" departSpeed="random" />
    <vehicle id="400009" type="Raleigh" route="lll" depart="36" departLane="free" departSpeed="random" />
    <vehicle id="400010" type="Raleigh" route="XVll" depart="39" departLane="free" departSpeed="random" />
    <vehicle id="400011" type="Raleigh" route="V" depart="46" departLane="free" departSpeed="random" />
    <vehicle id="400012" type="Raleigh" route="Vlll" depart="47" departLane="free" departSpeed="random" />
    <vehicle id="400013" type="Raleigh" route="XVll" depart="50" departLane="free" departSpeed="random" />
    <vehicle id="400014" type="Raleigh" route="XXV" depart="50" departLane="free" departSpeed="random" />
    <vehicle id="400015" type="Raleigh" route="Vlll" depart="53" departLane="free" departSpeed="random" />
    <vehicle id="400016" type="Raleigh" route="XXX" depart="55" departLane="free" departSpeed="random" />
    <vehicle id="400017" type="Raleigh" route="Xl" depart="60" departLane="free" departSpeed="random" />
    <vehicle id="400018" type="Raleigh" route="V" depart="61" departLane="free" departSpeed="random" />
    <vehicle id="400019" type="Raleigh" route="XXll" depart="62" departLane="free" departSpeed="random" />
    <vehicle id="400020" type="Raleigh" route="V" depart="67" departLane="free" departSpeed="random" />
    <vehicle id="400021" type="Raleigh" route="Vll" depart="67" departLane="free" departSpeed="random" />
    <vehicle id="400022" type="Raleigh" route="V" depart="68" departLane="free" departSpeed="random" />
    <vehicle id="400023" type="Raleigh" route="Vll" depart="69" departLane="free" departSpeed="random" />
    <vehicle id="400024" type="Raleigh" route="XVll" depart="71" departLane="free" departSpeed="random" />
    <vehicle id="400025" type="Raleigh" route="Xl" depart="72" departLane="free" departSpeed="random" />
    <vehicle id="400026" type="Raleigh" route="XVll" depart="72" departLane="free" departSpeed="random" />
    <vehicle id="400027" type="Raleigh" route="ll" depart="75" departLane="free" departSpeed="random" />
    <vehicle id="400028" type="Raleigh" route="Vlll" depart="82" departLane="free" departSpeed="random" />
    <vehicle id="400029" type="Raleigh" route="XVll" depart="85" departLane="free" departSpeed="random" />
    <vehicle id="400030" type="Raleigh" route="ll" depart="95" departLane="free" departSpeed="random" />
    <vehicle id="400031" type="Raleigh" route="V" depart="96" departLane="free" departSpeed="random" />
    <vehicle id="400032" type="Raleigh" route="Vlll" depart="96" departLane="free" departSpeed="random" />
    <vehicle id="400033" type="Raleigh" route="ll" depart="97" departLane="free" departSpeed="random" />
    <vehicle id="400034" type="Raleigh" route="Vlll" depart="97" departLane="free" departSpeed="random" />
    <vehicle id="400035" type="Raleigh" route="XXVl" depart="98" departLane="free" departSpeed="random" />
    <vehicle id="400036" type="Raleigh" route="V" depart="105" departLane="free" departSpeed="random" />
    <vehicle id="400037" type="Raleigh" route="lX" depart="108" departLane="free" departSpeed="random" />
    <vehicle id="400038" type="Raleigh" route="Vlll" depart="110" departLane="free" departSpeed="random" />
    <vehicle id="400039" type="Raleigh" route="XXVl" depart="111" departLane="free" departSpeed="random" />
    <vehicle id="400040" type="Raleigh" route="XVll" depart="115" departLane="free" departSpeed="random" />
    <vehicle id="400041" type="Raleigh" route="XVll" depart="116" departLane="free" departSpeed="random" />
    <vehicle id="400042" type="Raleigh" route="V" depart="118" departLane="free" departSpeed="random" />
    <vehicle id="400043" type="Raleigh" route="V" depart="120" departLane="free" departSpeed="random" />
    <vehicle id="400044" type="Raleigh" route="XVll" depart="120" departLane="free" departSpeed="random" />
    <vehicle id="400045" type="Raleigh" route="XXVll" depart="121" departLane="free" departSpeed="random" />
    <vehicle id="400046" type="Raleigh" route="ll" depart="125" departLane="free" departSpeed="random" />
    <vehicle id="400047" type="Raleigh" route="V" depart="126" departLane="free" departSpeed="random" />
    <vehicle id="400048" type="Raleigh" route="V" depart="128" departLane="free" departSpeed="random" />
    <vehicle id="400049" type="Raleigh" route="Xl" depart="129" departLane="free" departSpeed="random" />
    <vehicle id="400050" type="Raleigh" route="Vlll" depart="131" departLane="free" departSpeed="random" />
    <vehicle id="400051" type="Raleigh" route="lll" depart="132" departLane="free" departSpeed="random" />
    <vehicle id="400052" type="Raleigh" route="Vll" depart="132" departLane="free" departSpeed="random" />
    <vehicle id="400053" type="Raleigh" route="V" depart="135" departLane="free" departSpeed="random" />
    <vehicle id="400054" type="Raleigh" route="XXVll" depart="140" departLane="free" departSpeed="random" />
    <vehicle id="400055" type="Raleigh" route="l" depart="142" departLane="free" departSpeed="random" />
    <vehicle id="400056" type="Raleigh" route="V" depart="142" departLane="free" departSpeed="random" />
    <vehicle id="400057" type="Raleigh" route="XXX" depart="142" departLane="free" departSpeed="random" />
    <vehicle id="400058" type="Raleigh" route="Vlll" depart="145" departLane="free" departSpeed="random" />
    <vehicle id="400059" type="Raleigh" route="V" depart="146" departLane="free" departSpeed="random" />
    <vehicle id="400060" type="Raleigh" route="V" depart="151" departLane="free" departSpeed="random" />
    <vehicle id="400061" type="Raleigh" route="Vlll" depart="152" departLane="free" departSpeed="random" />
    <vehicle id="400062" type="Raleigh" route="V" depart="153" departLane="free" departSpeed="random" />
    <vehicle id="400063" type="Raleigh" route="Vll" depart="153" departLane="free" departSpeed="random" />
    <vehicle id="400064" type="Raleigh" route="XXll" depart="153" departLane="free" departSpeed="random" />
    <vehicle id="400065" type="Raleigh" route="XXVll" depart="155" departLane="free" departSpeed="random" />
    <vehicle id="400066" type="Raleigh" route="V" depart="160" departLane="free" departSpeed="random" />
    <vehicle id="400067" type="Raleigh" route="Vlll" depart="161" departLane="free" departSpeed="random" />
    <vehicle id="400068" type="Raleigh" route="Vlll" depart="162" departLane="free" departSpeed="random" />
    <vehicle id="400069" type="Raleigh" route="V" depart="164" departLane="free" departSpeed="random" />
    <vehicle id="400070" type="Raleigh" route="Vll" depart="172" departLane="free" departSpeed="random" />
    <vehicle id="400071" type="Raleigh" route="Xl" depart="172" departLane="free" departSpeed="random" />
    <vehicle id="400072" type="Raleigh" route="XXl" depart="172" departLane="free" departSpeed="random" />
    <vehicle id="400073" type="Raleigh" route="V" depart="175" departLane="free" departSpeed="random" />
    <vehicle id="400074" type="Raleigh" route="V" depart="177" departLane="free" departSpeed="random" />
    <vehicle id="400075" type="Raleigh" route="X" depart="185" departLane="free" departSpeed="random" />
    <vehicle id="400076" type="Raleigh" route="Vlll" depart="187" departLane="free" departSpeed="random" />
    <vehicle id="400077" type="Raleigh" route="Vlll" depart="188" departLane="free" departSpeed="random" />
    <vehicle id="400078" type="Raleigh" route="XVll" depart="190" departLane="free" departSpeed="random" />
    <vehicle id="400079" type="Raleigh" route="l" depart="191" departLane="free" departSpeed="random" />
    <vehicle id="400080" type="Raleigh" route="Vlll" depart="193" departLane="free" departSpeed="random" />
    <vehicle id="400081" type="Raleigh" route="XVll" depart="194" departLane="free" departSpeed="random" />
    <vehicle id="400082" type="Raleigh" route="Vlll" depart="196" departLane="free" departSpeed="random" />
    <vehicle id="400083" type="Raleigh" route="V" depart="202" departLane="free" departSpeed="random" />
    <vehicle id="400084" type="Raleigh" route="lX" depart="215" departLane="free" departSpeed="random" />
    <vehicle id="400085" type="Raleigh" route="lV" depart="221" departLane="free" departSpeed="random" />
    <vehicle id="400086" type="Raleigh" route="ll" depart="226" departLane="free" departSpeed="random" />
    <vehicle id="400087" type="Raleigh" route="XXVll" depart="227" departLane="free" departSpeed="random" />
    <vehicle id="400088" type="Raleigh" route="Vlll" depart="228" departLane="free" departSpeed="random" />
    <vehicle id="400089" type="Raleigh" route="XVll" depart="229" departLane="free" departSpeed="random" />
    <vehicle id="400090" type="Raleigh" route="Vlll" depart="231" departLane="free" departSpeed="random" />
    <vehicle id="400091" type="Raleigh" route="Vlll" depart="232" departLane="free" departSpeed="random" />
    <vehicle id="400092" type="Raleigh" route="Vlll" depart="233" departLane="free" departSpeed="random" />
    <vehicle id="400093" type="Raleigh" route="Vlll" depart="235" departLane="free" departSpeed="random" />
    <vehicle id="400094" type="Raleigh" route="ll" depart="237" departLane="free" departSpeed="random" />
    <vehicle id="400095" type="Raleigh" route="Xl" depart="239" departLane="free" departSpeed="random" />
    <vehicle id="400096" type="Raleigh" route="lll" depart="240" departLane="free" departSpeed="random" />
    <vehicle id="400097" type="Raleigh" route="Vlll" depart="240" departLane="free" departSpeed="random" />
    <vehicle id="400098" type="Raleigh" route="XXVll" depart="248" departLane="free" departSpeed="random" />
    <vehicle id="400099" type="Raleigh" route="Vlll" depart="249" departLane="free" departSpeed="random" />
    <vehicle id="400100" type="Raleigh" route="Xl" depart="250" departLane="free" departSpeed="random" />
    <vehicle id="400101" type="Raleigh" route="lV" depart="254" departLane="free" departSpeed="random" />
    <vehicle id="400102" type="Raleigh" route="V" depart="254" departLane="free" departSpeed="random" />
    <vehicle id="400103" type="Raleigh" route="Xl" depart="254" departLane="free" departSpeed="random" />
    <vehicle id="400104" type="Raleigh" route="Vll" depart="263" departLane="free" departSpeed="random" />
    <vehicle id="400105" type="Raleigh" route="V" depart="266" departLane="free" departSpeed="random" />
    <vehicle id="400106" type="Raleigh" route="Vlll" depart="267" departLane="free" departSpeed="random" />
    <vehicle id="400107" type="Raleigh" route="XXVl" depart="267" departLane="free" departSpeed="random" />
    <vehicle id="400108" type="Raleigh" route="V" depart="268" departLane="free" departSpeed="random" />
    <vehicle id="400109" type="Raleigh" route="Vll" depart="271" departLane="free" departSpeed="random" />
    <vehicle id="400110" type="Raleigh" route="XXll" depart="271" departLane="free" departSpeed="random" />
    <vehicle id="400111" type="Raleigh" route="lV" depart="279" departLane="free" departSpeed="random" />
    <vehicle id="400112" type="Raleigh" route="Vlll" depart="280" departLane="free" departSpeed="random" />
    <vehicle id="400113" type="Raleigh" route="lX" depart="281" departLane="free" departSpeed="random" />
    <vehicle id="400114" type="Raleigh" route="XXVll" depart="281" departLane="free" departSpeed="random" />
    <vehicle id="400115" type="Raleigh" route="Vll" depart="282" departLane="free" departSpeed="random" />
    <vehicle id="400116" type="Raleigh" route="XVll" depart="285" departLane="free" departSpeed="random" />
    <vehicle id="400117" type="Raleigh" route="V" depart="286" departLane="free" departSpeed="random" />
    <vehicle id="400118" type="Raleigh" route="lX" depart="290" departLane="free" departSpeed="random" />
    <vehicle id="400119" type="Raleigh" route="XVll" depart="295" departLane="free" departSpeed="random" />
    <vehicle id="400120" type="Raleigh" route="lX" depart="297" departLane="free" departSpeed="random" />
    <vehicle id="400121" type="Raleigh" route="l" depart="304" departLane="free" departSpeed="random" />
    <vehicle id="400122" type="Raleigh" route="Vlll" depart="304" departLane="free" departSpeed="random" />
    <vehicle id="400123" type="Raleigh" route="Vlll" depart="305" departLane="free" departSpeed="random" />
    <vehicle id="400124" type="Raleigh" route="V" depart="306" departLane="free" departSpeed="random" />
    <vehicle id="400125" type="Raleigh" route="Vlll" depart="307" departLane="free" departSpeed="random" />
    <vehicle id="400126" type="Raleigh" route="Xl" depart="307" departLane="free" departSpeed="random" />
    <vehicle id="400127" type="Raleigh" route="V" depart="309" departLane="free" departSpeed="random" />
    <vehicle id="400128" type="Raleigh" route="XXVll" depart="309" departLane="free" departSpeed="random" />
    <vehicle id="400129" type="Raleigh" route="ll" depart="311" departLane="free" departSpeed="random" />
    <vehicle id="400130" type="Raleigh" route="Vlll" depart="317" departLane="free" departSpeed="random" />
    <vehicle id="400131" type="Raleigh" route="V" depart="319" departLane="free" departSpeed="random" />
    <vehicle id="400132" type="Raleigh" route="XXVll" depart="319" departLane="free" departSpeed="random" />
    <vehicle id="400133" type="Raleigh" route="lX" depart="320" departLane="free" departSpeed="random" />
    <vehicle id="400134" type="Raleigh" route="XXll" depart="328" departLane="free" departSpeed="random" />
    <vehicle id="400135" type="Raleigh" route="V" depart="333" departLane="free" departSpeed="random" />
    <vehicle id="400136" type="Raleigh" route="XVll" depart="336" departLane="free" departSpeed="random" />
    <vehicle id="400137" type="Raleigh" route="Vlll" depart="339" departLane="free" departSpeed="random" />
    <vehicle id="400138" type="Raleigh" route="Xl" depart="339" departLane="free" departSpeed="random" />
    <vehicle id="400139" type="Raleigh" route="V" depart="346" departLane="free" departSpeed="random" />
    <vehicle id="400140" type="Raleigh" route="Vlll" depart="349" departLane="free" departSpeed="random" />
    <vehicle id="400141" type="Raleigh" route="Xl" depart="352" departLane="free" departSpeed="random" />
    <vehicle id="400142" type="Raleigh" route="V" depart="356" departLane="free" departSpeed="random" />
    <vehicle id="400143" type="Raleigh" route="V" depart="364" departLane="free" departSpeed="random" />
    <vehicle id="400144" type="Raleigh" route="XXl" depart="369" departLane="free" departSpeed="random" />
    <vehicle id="400145" type="Raleigh" route="Xl" depart="370" departLane="free" departSpeed="random" />
    <vehicle id="400146" type="Raleigh" route="V" depart="371" departLane="free" departSpeed="random" />
    <vehicle id="400147" type="Raleigh" route="V" depart="372" departLane="free" departSpeed="random" />
    <vehicle id="400148" type="Raleigh" route="Vll" depart="375" departLane="free" departSpeed="random" />
    <vehicle id="400149" type="Raleigh" route="XXll" depart="378" departLane="free" departSpeed="random" />
    <vehicle id="400150" type="Raleigh" route="XXVl" depart="379" departLane="free" departSpeed="random" />
    <vehicle id="400151" type="Raleigh" route="Xl" depart="380" departLane="free" departSpeed="random" />
    <vehicle id="400152" type="Raleigh" route="V" depart="381" departLane="free" departSpeed="random" />
    <vehicle id="400153" type="Raleigh" route="Xl" depart="382" departLane="free" departSpeed="random" />
    <vehicle id="400154" type="Raleigh" route="XXX" depart="383" departLane="free" departSpeed="random" />
    <vehicle id="400155" type="Raleigh" route="V" depart="385" departLane="free" departSpeed="random" />
    <vehicle id="400156" type="Raleigh" route="l" depart="388" departLane="free" departSpeed="random" />
    <vehicle id="400157" type="Raleigh" route="V" depart="389" departLane="free" departSpeed="random" />
    <vehicle id="400158" type="Raleigh" route="Vlll" depart="392" departLane="free" departSpeed="random" />
    <vehicle id="400159" type="Raleigh" route="XXll" depart="392" departLane="free" departSpeed="random" />
    <vehicle id="400160" type="Raleigh" route="Vlll" depart="393" departLane="free" departSpeed="random" />
    <vehicle id="400161" type="Raleigh" route="XXll" depart="393" departLane="free" departSpeed="random" />
    <vehicle id="400162" type="Raleigh" route="Vlll" depart="398" departLane="free" departSpeed="random" />
    <vehicle id="400163" type="Raleigh" route="lll" depart="405" departLane="free" departSpeed="random" />
    <vehicle id="400164" type="Raleigh" route="Vlll" depart="409" departLane="free" departSpeed="random" />
    <vehicle id="400165" type="Raleigh" route="V" depart="411" departLane="free" departSpeed="random" />
    <vehicle id="400166" type="Raleigh" route="Xll" depart="411" departLane="free" departSpeed="random" />
    <vehicle id="400167" type="Raleigh" route="V" depart="413" departLane="free" departSpeed="random" />
    <vehicle id="400168" type="Raleigh" route="Vlll" depart="413" departLane="free" departSpeed="random" />
    <vehicle id="400169" type="Raleigh" route="Vlll" depart="415" departLane="free" departSpeed="random" />
    <vehicle id="400170" type="Raleigh" route="XVll" depart="415" departLane="free" departSpeed="random" />
    <vehicle id="400171" type="Raleigh" route="XX" depart="418" departLane="free" departSpeed="random" />
    <vehicle id="400172" type="Raleigh" route="Xl" depart="421" departLane="free" departSpeed="random" />
    <vehicle id="400173" type="Raleigh" route="ll" depart="422" departLane="free" departSpeed="random" />
    <vehicle id="400174" type="Raleigh" route="V" depart="423" departLane="free" departSpeed="random" />
    <vehicle id="400175" type="Raleigh" route="X" depart="425" departLane="free" departSpeed="random" />
    <vehicle id="400176" type="Raleigh" route="XXll" depart="426" departLane="free" departSpeed="random" />
    <vehicle id="400177" type="Raleigh" route="XXVll" depart="427" departLane="free" departSpeed="random" />
    <vehicle id="400178" type="Raleigh" route="lV" depart="430" departLane="free" departSpeed="random" />
    <vehicle id="400179" type="Raleigh" route="l" depart="431" departLane="free" departSpeed="random" />
    <vehicle id="400180" type="Raleigh" route="Xl" depart="431" departLane="free" departSpeed="random" />
    <vehicle id="400181" type="Raleigh" route="V" depart="433" departLane="free" departSpeed="random" />
    <vehicle id="400182" type="Raleigh" route="V" depart="434" departLane="free" departSpeed="random" />
    <vehicle id="400183" type="Raleigh" route="Xl" depart="434" departLane="free" departSpeed="random" />
    <vehicle id="400184" type="Raleigh" route="XXll" depart="437" departLane="free" departSpeed="random" />
    <vehicle id="400185" type="Raleigh" route="lX" depart="438" departLane="free" departSpeed="random" />
    <vehicle id="400186" type="Raleigh" route="lll" depart="443" departLane="free" departSpeed="random" />
    <vehicle id="400187" type="Raleigh" route="V" depart="443" departLane="free" departSpeed="random" />
    <vehicle id="400188" type="Raleigh" route="V" depart="444" departLane="free" departSpeed="random" />
    <vehicle id="400189" type="Raleigh" route="XXVll" depart="444" departLane="free" departSpeed="random" />
    <vehicle id="400190" type="Raleigh" route="V" depart="445" departLane="free" departSpeed="random" />
    <vehicle id="400191" type="Raleigh" route="lX" depart="446" departLane="free" departSpeed="random" />
    <vehicle id="400192" type="Raleigh" route="Vlll" depart="447" departLane="free" departSpeed="random" />
    <vehicle id="400193" type="Raleigh" route="V" depart="448" departLane="free" departSpeed="random" />
    <vehicle id="400194" type="Raleigh" route="lll" depart="449" departLane="free" departSpeed="random" />
    <vehicle id="400195" type="Raleigh" route="Vlll" depart="454" departLane="free" departSpeed="random" />
    <vehicle id="400196" type="Raleigh" route="lX" depart="455" departLane="free" departSpeed="random" />
    <vehicle id="400197" type="Raleigh" route="ll" depart="458" departLane="free" departSpeed="random" />
    <vehicle id="400198" type="Raleigh" route="Vlll" depart="459" departLane="free" departSpeed="random" />
    <vehicle id="400199" type="Raleigh" route="XVl" depart="459" departLane="free" departSpeed="random" />
    <vehicle id="400200" type="Raleigh" route="XXll" depart="461" departLane="free" departSpeed="random" />
    <vehicle id="400201" type="Raleigh" route="l" depart="468" departLane="free" departSpeed="random" />
    <vehicle id="400202" type="Raleigh" route="V" depart="470" departLane="free" departSpeed="random" />
    <vehicle id="400203" type="Raleigh" route="lX" depart="471" departLane="free" departSpeed="random" />
    <vehicle id="400204" type="Raleigh" route="XXll" depart="472" departLane="free" departSpeed="random" />
    <vehicle id="400205" type="Raleigh" route="lV" depart="475" departLane="free" departSpeed="random" />
    <vehicle id="400206" type="Raleigh" route="V" depart="478" departLane="free" departSpeed="random" />
    <vehicle id="400207" type="Raleigh" route="XXll" depart="479" departLane="free" departSpeed="random" />
    <vehicle id="400208" type="Raleigh" route="Vlll" depart="480" departLane="free" departSpeed="random" />
    <vehicle id="400209" type="Raleigh" route="V" depart="482" departLane="free" departSpeed="random" />
    <vehicle id="400210" type="Raleigh" route="XXll" depart="482" departLane="free" departSpeed="random" />
    <vehicle id="400211" type="Raleigh" route="V" depart="484" departLane="free" departSpeed="random" />
    <vehicle id="400212" type="Raleigh" route="Xl" depart="484" departLane="free" departSpeed="random" />
    <vehicle id="400213" type="Raleigh" route="Vl" depart="485" departLane="free" departSpeed="random" />
    <vehicle id="400214" type="Raleigh" route="XXVl" depart="486" departLane="free" departSpeed="random" />
    <vehicle id="400215" type="Raleigh" route="XXVl" depart="487" departLane="free" departSpeed="random" />
    <vehicle id="400216" type="Raleigh" route="XXll" depart="489" departLane="free" departSpeed="random" />
    <vehicle id="400217" type="Raleigh" route="Xl" depart="491" departLane="free" departSpeed="random" />
    <vehicle id="400218" type="Raleigh" route="Vlll" depart="492" departLane="free" departSpeed="random" />
    <vehicle id="400219" type="Raleigh" route="Xl" depart="493" departLane="free" departSpeed="random" />
    <vehicle id="400220" type="Raleigh" route="lX" depart="497" departLane="free" departSpeed="random" />
    <vehicle id="400221" type="Raleigh" route="Xl" depart="497" departLane="free" departSpeed="random" />
    <vehicle id="400222" type="Raleigh" route="l" depart="503" departLane="free" departSpeed="random" />
    <vehicle id="400223" type="Raleigh" route="XVll" depart="503" departLane="free" departSpeed="random" />
    <vehicle id="400224" type="Raleigh" route="ll" depart="507" departLane="free" departSpeed="random" />
    <vehicle id="400225" type="Raleigh" route="V" depart="507" departLane="free" departSpeed="random" />
    <vehicle id="400226" type="Raleigh" route="XXVl" depart="508" departLane="free" departSpeed="random" />
    <vehicle id="400227" type="Raleigh" route="Xl" depart="510" departLane="free" departSpeed="random" />
    <vehicle id="400228" type="Raleigh" route="Vlll" depart="511" departLane="free" departSpeed="random" />
    <vehicle id="400229" type="Raleigh" route="X" depart="512" departLane="free" departSpeed="random" />
    <vehicle id="400230" type="Raleigh" route="X" depart="513" departLane="free" departSpeed="random" />
    <vehicle id="400231" type="Raleigh" route="V" depart="515" departLane="free" departSpeed="random" />
    <vehicle id="400232" type="Raleigh" route="lV" depart="517" departLane="free" departSpeed="random" />
    <vehicle id="400233" type="Raleigh" route="Vlll" depart="517" departLane="free" departSpeed="random" />
    <vehicle id="400234" type="Raleigh" route="XXll" depart="520" departLane="free" departSpeed="random" />
    <vehicle id="400235" type="Raleigh" route="XVll" depart="521" departLane="free" departSpeed="random" />
    <vehicle id="400236" type="Raleigh" route="lll" depart="525" departLane="free" departSpeed="random" />
    <vehicle id="400237" type="Raleigh" route="Vl" depart="527" departLane="free" departSpeed="random" />
    <vehicle id="400238" type="Raleigh" route="Vlll" depart="529" departLane="free" departSpeed="random" />
    <vehicle id="400239" type="Raleigh" route="V" depart="530" departLane="free" departSpeed="random" />
    <vehicle id="400240" type="Raleigh" route="XVll" depart="531" departLane="free" departSpeed="random" />
    <vehicle id="400241" type="Raleigh" route="l" depart="532" departLane="free" departSpeed="random" />
    <vehicle id="400242" type="Raleigh" route="V" depart="532" departLane="free" departSpeed="random" />
    <vehicle id="400243" type="Raleigh" route="Xl" depart="533" departLane="free" departSpeed="random" />
    <vehicle id="400244" type="Raleigh" route="X" depart="534" departLane="free" departSpeed="random" />
    <vehicle id="400245" type="Raleigh" route="Xlll" depart="535" departLane="free" departSpeed="random" />
    <vehicle id="400246" type="Raleigh" route="XVll" depart="536" departLane="free" departSpeed="random" />
    <vehicle id="400247" type="Raleigh" route="V" depart="537" departLane="free" departSpeed="random" />
    <vehicle id="400248" type="Raleigh" route="XXVll" depart="537" departLane="free" departSpeed="random" />
    <vehicle id="400249" type="Raleigh" route="V" depart="538" departLane="free" departSpeed="random" />
    <vehicle id="400250" type="Raleigh" route="XXll" depart="539" departLane="free" departSpeed="random" />
    <vehicle id="400251" type="Raleigh" route="lV" depart="543" departLane="free" departSpeed="random" />
    <vehicle id="400252" type="Raleigh" route="Vlll" depart="550" departLane="free" departSpeed="random" />
    <vehicle id="400253" type="Raleigh" route="V" depart="553" departLane="free" departSpeed="random" />
    <vehicle id="400254" type="Raleigh" route="XVll" depart="553" departLane="free" departSpeed="random" />
    <vehicle id="400255" type="Raleigh" route="ll" depart="554" departLane="free" departSpeed="random" />
    <vehicle id="400256" type="Raleigh" route="Vlll" depart="556" departLane="free" departSpeed="random" />
    <vehicle id="400257" type="Raleigh" route="XXll" depart="556" departLane="free" departSpeed="random" />
    <vehicle id="400258" type="Raleigh" route="Vlll" depart="557" departLane="free" departSpeed="random" />
    <vehicle id="400259" type="Raleigh" route="lV" depart="558" departLane="free" departSpeed="random" />
    <vehicle id="400260" type="Raleigh" route="Vlll" depart="559" departLane="free" departSpeed="random" />
    <vehicle id="400261" type="Raleigh" route="lV" depart="562" departLane="free" departSpeed="random" />
    <vehicle id="400262" type="Raleigh" route="XXVl" depart="564" departLane="free" departSpeed="random" />
    <vehicle id="400263" type="Raleigh" route="XXll" depart="567" departLane="free" departSpeed="random" />