<routes>
        
            <vType id="Raleigh" accel="2.0" decel="3.0" sigma="0.5" length="2.5" maxSpeed="5.6" color="0,255,255" guiShape="bicycle" width ="1.0" vClass="bicycle"/>  
        
            <route id="l" edges="a_3 3_c"/>
            <route id="ll" edges="a_3 3_d"/>
            <route id="lll" edges="a_3 3_6 6_e"/>
            <route id="lV" edges="a_3 3_6 6_f"/>
            <route id="V" edges="a_3 3_6 6_b"/>

            <route id="Vl" edges="b_6 6_f"/>
            <route id="Vll" edges="b_6 6_e"/>
            <route id="Vlll" edges="b_6 6_3 3_a"/>
            <route id="lX" edges="b_6 6_3 3_d"/> 
            <route id="X" edges="b_6 6_3 3_c"/>
            
            
            <route id="Xl" edges="d_3 3_c"/>
            <route id="Xll" edges="d_3 3_a "/>
            <route id="Xlll" edges="d_3 3_6 6_b"/>
            <route id="XlV" edges="d_3 3_6 6_f"/> 
            <route id="XV" edges="d_3 3_6 6_e"/>
            
            <route id="XVl" edges="c_3 3_a"/>
            <route id="XVll" edges="c_3 3_d"/>
            <route id="XVlll" edges="c_3 3_6 6_f"/>
            <route id="XlX" edges="c_3 3_6 6_e"/> 
            <route id="XX" edges="c_3 3_6 6_b"/>
            
            <route id="XXl" edges="f_6 6_b"/>
            <route id="XXll" edges="f_6 6_e"/>
            <route id="XXlll" edges="f_6 6_3 3_d"/>
            <route id="XXlV" edges="f_6 6_3 3_c"/> 
            <route id="XXV" edges="f_6 6_3 3_a"/>
            
            <route id="XXVl"  edges="e_6 6_b"/>
            <route id="XXVll" edges="e_6 6_f"/>
            <route id="XXVlll" edges="e_6 6_3 3_d"/>
            <route id="XXlX" edges="e_6 6_3 3_c"/> 
            <route id="XXX" edges="e_6 6_3 3_a"/>	
                        
        
    <vehicle id="400000" type="Raleigh" route="XXVll" depart="6" departLane="free" departSpeed="random" />
    <vehicle id="400001" type="Raleigh" route="Vlll" depart="15" departLane="free" departSpeed="random" />
    <vehicle id="400002" type="Raleigh" route="lll" depart="17" departLane="free" departSpeed="random" />
    <vehicle id="400003" type="Raleigh" route="Vl" depart="21" departLane="free" departSpeed="random" />
    <vehicle id="400004" type="Raleigh" route="XXll" depart="22" departLane="free" departSpeed="random" />
    <vehicle id="400005" type="Raleigh" route="V" depart="26" departLane="free" departSpeed="random" />
    <vehicle id="400006" type="Raleigh" route="Vlll" depart="28" departLane="free" departSpeed="random" />
    <vehicle id="400007" type="Raleigh" route="V" depart="29" departLane="free" departSpeed="random" />
    <vehicle id="400008" type="Raleigh" route="X" depart="32" departLane="free" departSpeed="random" />
    <vehicle id="400009" type="Raleigh" route="ll" depart="33" departLane="free" departSpeed="random" />
    <vehicle id="400010" type="Raleigh" route="lX" depart="33" departLane="free" departSpeed="random" />
    <vehicle id="400011" type="Raleigh" route="V" depart="35" departLane="free" departSpeed="random" />
    <vehicle id="400012" type="Raleigh" route="XVll" depart="37" departLane="free" departSpeed="random" />
    <vehicle id="400013" type="Raleigh" route="V" depart="39" departLane="free" departSpeed="random" />
    <vehicle id="400014" type="Raleigh" route="V" depart="41" departLane="free" departSpeed="random" />
    <vehicle id="400015" type="Raleigh" route="Xl" depart="43" departLane="free" departSpeed="random" />
    <vehicle id="400016" type="Raleigh" route="Xl" depart="45" departLane="free" departSpeed="random" />
    <vehicle id="400017" type="Raleigh" route="Vlll" depart="47" departLane="free" departSpeed="random" />
    <vehicle id="400018" type="Raleigh" route="V" depart="49" departLane="free" departSpeed="random" />
    <vehicle id="400019" type="Raleigh" route="Vlll" depart="49" departLane="free" departSpeed="random" />
    <vehicle id="400020" type="Raleigh" route="XXVll" depart="52" departLane="free" departSpeed="random" />
    <vehicle id="400021" type="Raleigh" route="XVll" depart="54" departLane="free" departSpeed="random" />
    <vehicle id="400022" type="Raleigh" route="Vlll" depart="56" departLane="free" departSpeed="random" />
    <vehicle id="400023" type="Raleigh" route="XXl" depart="56" departLane="free" departSpeed="random" />
    <vehicle id="400024" type="Raleigh" route="Vl" depart="66" departLane="free" departSpeed="random" />
    <vehicle id="400025" type="Raleigh" route="Vlll" depart="66" departLane="free" departSpeed="random" />
    <vehicle id="400026" type="Raleigh" route="V" depart="71" departLane="free" departSpeed="random" />
    <vehicle id="400027" type="Raleigh" route="V" depart="72" departLane="free" departSpeed="random" />
    <vehicle id="400028" type="Raleigh" route="V" depart="74" departLane="free" departSpeed="random" />
    <vehicle id="400029" type="Raleigh" route="V" depart="77" departLane="free" departSpeed="random" />
    <vehicle id="400030" type="Raleigh" route="lll" depart="79" departLane="free" departSpeed="random" />
    <vehicle id="400031" type="Raleigh" route="XXVll" depart="79" departLane="free" departSpeed="random" />
    <vehicle id="400032" type="Raleigh" route="Vlll" depart="82" departLane="free" departSpeed="random" />
    <vehicle id="400033" type="Raleigh" route="V" depart="85" departLane="free" departSpeed="random" />
    <vehicle id="400034" type="Raleigh" route="V" depart="92" departLane="free" departSpeed="random" />
    <vehicle id="400035" type="Raleigh" route="Vl" depart="95" departLane="free" departSpeed="random" />
    <vehicle id="400036" type="Raleigh" route="Vlll" depart="101" departLane="free" departSpeed="random" />
    <vehicle id="400037" type="Raleigh" route="l" depart="106" departLane="free" departSpeed="random" />
    <vehicle id="400038" type="Raleigh" route="V" depart="115" departLane="free" departSpeed="random" />
    <vehicle id="400039" type="Raleigh" route="Vlll" depart="118" departLane="free" departSpeed="random" />
    <vehicle id="400040" type="Raleigh" route="XXll" depart="123" departLane="free" departSpeed="random" />
    <vehicle id="400041" type="Raleigh" route="V" depart="125" departLane="free" departSpeed="random" />
    <vehicle id="400042" type="Raleigh" route="Vlll" depart="135" departLane="free" departSpeed="random" />
    <vehicle id="400043" type="Raleigh" route="V" depart="137" departLane="free" departSpeed="random" />
    <vehicle id="400044" type="Raleigh" route="lX" depart="137" departLane="free" departSpeed="random" />
    <vehicle id="400045" type="Raleigh" route="XVll" depart="137" departLane="free" departSpeed="random" />
    <vehicle id="400046" type="Raleigh" route="V" depart="143" departLane="free" departSpeed="random" />
    <vehicle id="400047" type="Raleigh" route="Vlll" depart="143" departLane="free" departSpeed="random" />
    <vehicle id="400048" type="Raleigh" route="Vll" depart="145" departLane="free" departSpeed="random" />
    <vehicle id="400049" type="Raleigh" route="Vlll" depart="148" departLane="free" departSpeed="random" />
    <vehicle id="400050" type="Raleigh" route="V" depart="150" departLane="free" departSpeed="random" />
    <vehicle id="400051" type="Raleigh" route="Vlll" depart="151" departLane="free" departSpeed="random" />
    <vehicle id="400052" type="Raleigh" route="Vlll" depart="155" departLane="free" departSpeed="random" />
    <vehicle id="400053" type="Raleigh" route="lV" depart="157" departLane="free" departSpeed="random" />
    <vehicle id="400054" type="Raleigh" route="Vlll" depart="158" departLane="free" departSpeed="random" />
    <vehicle id="400055" type="Raleigh" route="Vlll" depart="163" departLane="free" departSpeed="random" />
    <vehicle id="400056" type="Raleigh" route="XVl" depart="164" departLane="free" departSpeed="random" />
    <vehicle id="400057" type="Raleigh" route="XX" depart="164" departLane="free" departSpeed="random" />
    <vehicle id="400058" type="Raleigh" route="XVll" depart="165" departLane="free" departSpeed="random" />
    <vehicle id="400059" type="Raleigh" route="V" depart="173" departLane="free" departSpeed="random" />
    <vehicle id="400060" type="Raleigh" route="V" depart="181" departLane="free" departSpeed="random" />
    <vehicle id="400061" type="Raleigh" route="ll" depart="182" departLane="free" departSpeed="random" />
    <vehicle id="400062" type="Raleigh" route="XXVll" depart="186" departLane="free" departSpeed="random" />
    <vehicle id="400063" type="Raleigh" route="V" depart="187" departLane="free" departSpeed="random" />
    <vehicle id="400064" type="Raleigh" route="Xll" depart="187" departLane="free" departSpeed="random" />
    <vehicle id="400065" type="Raleigh" route="XXVll" depart="190" departLane="free" departSpeed="random" />
    <vehicle id="400066" type="Raleigh" route="Vl" depart="193" departLane="free" departSpeed="random" />
    <vehicle id="400067" type="Raleigh" route="lX" depart="193" departLane="free" departSpeed="random" />
    <vehicle id="400068" type="Raleigh" route="XlX" depart="196" departLane="free" departSpeed="random" />
    <vehicle id="400069" type="Raleigh" route="V" depart="203" departLane="free" departSpeed="random" />
    <vehicle id="400070" type="Raleigh" route="XVll" depart="203" departLane="free" departSpeed="random" />
    <vehicle id="400071" type="Raleigh" route="Vlll" depart="204" departLane="free" departSpeed="random" />
    <vehicle id="400072" type="Raleigh" route="V" depart="205" departLane="free" departSpeed="random" />
    <vehicle id="400073" type="Raleigh" route="V" depart="206" departLane="free" departSpeed="random" />
    <vehicle id="400074" type="Raleigh" route="Vlll" depart="207" departLane="free" departSpeed="random" />
    <vehicle id="400075" type="Raleigh" route="Vlll" depart="209" departLane="free" departSpeed="random" />
    <vehicle id="400076" type="Raleigh" route="X" depart="211" departLane="free" departSpeed="random" />
    <vehicle id="400077" type="Raleigh" route="lX" depart="219" departLane="free" departSpeed="random" />
    <vehicle id="400078" type="Raleigh" route="Vlll" depart="223" departLane="free" departSpeed="random" />
    <vehicle id="400079" type="Raleigh" route="Vlll" depart="225" departLane="free" departSpeed="random" />
    <vehicle id="400080" type="Raleigh" route="XXll" depart="225" departLane="free" departSpeed="random" />
    <vehicle id="400081" type="Raleigh" route="V" depart="230" departLane="free" departSpeed="random" />
    <vehicle id="400082" type="Raleigh" route="Vlll" depart="235" departLane="free" departSpeed="random" />
    <vehicle id="400083" type="Raleigh" route="Vlll" depart="243" departLane="free" departSpeed="random" />
    <vehicle id="400084" type="Raleigh" route="XXVll" depart="243" departLane="free" departSpeed="random" />
    <vehicle id="400085" type="Raleigh" route="l" depart="246" departLane="free" departSpeed="random" />
    <vehicle id="400086" type="Raleigh" route="XX" depart="246" departLane="free" departSpeed="random" />
    <vehicle id="400087" type="Raleigh" route="l" depart="249" departLane="free" departSpeed="random" />
    <vehicle id="400088" type="Raleigh" route="XVll" depart="252" departLane="free" departSpeed="random" />
    <vehicle id="400089" type="Raleigh" route="V" depart="254" departLane="free" departSpeed="random" />
    <vehicle id="400090" type="Raleigh" route="Vlll" depart="255" departLane="free" departSpeed="random" />
    <vehicle id="400091" type="Raleigh" route="XVll" depart="257" departLane="free" departSpeed="random" />
    <vehicle id="400092" type="Raleigh" route="V" depart="270" departLane="free" departSpeed="random" />
    <vehicle id="400093" type="Raleigh" route="Vlll" depart="272" departLane="free" departSpeed="random" />
    <vehicle id="400094" type="Raleigh" route="X" depart="272" departLane="free" departSpeed="random" />
    <vehicle id="400095" type="Raleigh" route="V" depart="274" departLane="free" departSpeed="random" />
    <vehicle id="400096" type="Raleigh" route="XXll" depart="276" departLane="free" departSpeed="random" />
    <vehicle id="400097" type="Raleigh" route="XXVll" depart="277" departLane="free" departSpeed="random" />
    <vehicle id="400098" type="Raleigh" route="V" depart="278" departLane="free" departSpeed="random" />
    <vehicle id="400099" type="Raleigh" route="XXll" depart="280" departLane="free" departSpeed="random" />
    <vehicle id="400100" type="Raleigh" route="V" depart="282" departLane="free" departSpeed="random" />
    <vehicle id="400101" type="Raleigh" route="lll" depart="290" departLane="free" departSpeed="random" />
    <vehicle id="400102" type="Raleigh" route="V" depart="290" departLane="free" departSpeed="random" />
    <vehicle id="400103" type="Raleigh" route="V" depart="294" departLane="free" departSpeed="random" />
    <vehicle id="400104" type="Raleigh" route="Vlll" depart="294" departLane="free" departSpeed="random" />
    <vehicle id="400105" type="Raleigh" route="l" depart="307" departLane="free" departSpeed="random" />
    <vehicle id="400106" type="Raleigh" route="V" depart="312" departLane="free" departSpeed="random" />
    <vehicle id="400107" type="Raleigh" route="Xl" depart="312" departLane="free" departSpeed="random" />
    <vehicle id="400108" type="Raleigh" route="l" depart="314" departLane="free" departSpeed="random" />
    <vehicle id="400109" type="Raleigh" route="Vlll" depart="315" departLane="free" departSpeed="random" />
    <vehicle id="400110" type="Raleigh" route="XXll" depart="318" departLane="free" departSpeed="random" />
    <vehicle id="400111" type="Raleigh" route="V" depart="320" departLane="free" departSpeed="random" />
    <vehicle id="400112" type="Raleigh" route="V" depart="326" departLane="free" departSpeed="random" />
    <vehicle id="400113" type="Raleigh" route="Vlll" depart="330" departLane="free" departSpeed="random" />
    <vehicle id="400114" type="Raleigh" route="XXll" depart="333" departLane="free" departSpeed="random" />
    <vehicle id="400115" type="Raleigh" route="Vl" depart="336" departLane="free" departSpeed="random" />
    <vehicle id="400116" type="Raleigh" route="XX" depart="339" departLane="free" departSpeed="random" />
    <vehicle id="400117" type="Raleigh" route="l" depart="342" departLane="free" departSpeed="random" />
    <vehicle id="400118" type="Raleigh" route="XXVll" depart="351" departLane="free" departSpeed="random" />
    <vehicle id="400119" type="Raleigh" route="Vlll" depart="352" departLane="free" departSpeed="random" />
    <vehicle id="400120" type="Raleigh" route="V" depart="355" departLane="free" departSpeed="random" />
    <vehicle id="400121" type="Raleigh" route="V" depart="358" departLane="free" departSpeed="random" />
    <vehicle id="400122" type="Raleigh" route="Vlll" depart="359" departLane="free" departSpeed="random" />
    <vehicle id="400123" type="Raleigh" route="Xll" depart="362" departLane="free" departSpeed="random" />
    <vehicle id="400124" type="Raleigh" route="Vlll" depart="365" departLane="free" departSpeed="random" />
    <vehicle id="400125" type="Raleigh" route="X" depart="365" departLane="free" departSpeed="random" />
    <vehicle id="400126" type="Raleigh" route="Vlll" depart="367" departLane="free" departSpeed="random" />
    <vehicle id="400127" type="Raleigh" route="Vlll" depart="368" departLane="free" departSpeed="random" />
    <vehicle id="400128" type="Raleigh" route="Vl" depart="370" departLane="free" departSpeed="random" />
    <vehicle id="400129" type="Raleigh" route="V" depart="371" departLane="free" departSpeed="random" />
    <vehicle id="400130" type="Raleigh" route="ll" depart="377" departLane="free" departSpeed="random" />
    <vehicle id="400131" type="Raleigh" route="V" depart="378" departLane="free" departSpeed="random" />
    <vehicle id="400132" type="Raleigh" route="XXll" depart="386" departLane="free" departSpeed="random" />
    <vehicle id="400133" type="Raleigh" route="ll" depart="392" departLane="free" departSpeed="random" />
    <vehicle id="400134" type="Raleigh" route="Vlll" depart="392" departLane="free" departSpeed="random" />
    <vehicle id="400135" type="Raleigh" route="Vlll" depart="397" departLane="free" departSpeed="random" />
    <vehicle id="400136" type="Raleigh" route="Vlll" depart="400" departLane="free" departSpeed="random" />
    <vehicle id="400137" type="Raleigh" route="Xl" depart="403" departLane="free" departSpeed="random" />
    <vehicle id="400138" type="Raleigh" route="Vlll" depart="407" departLane="free" departSpeed="random" />
    <vehicle id="400139" type="Raleigh" route="Vlll" depart="408" departLane="free" departSpeed="random" />
    <vehicle id="400140" type="Raleigh" route="Vlll" depart="409" departLane="free" departSpeed="random" />
    <vehicle id="400141" type="Raleigh" route="V" depart="413" departLane="free" departSpeed="random" />
    <vehicle id="400142" type="Raleigh" route="ll" depart="417" departLane="free" departSpeed="random" />
    <vehicle id="400143" type="Raleigh" route="V" depart="419" departLane="free" departSpeed="random" />
    <vehicle id="400144" type="Raleigh" route="XVll" depart="424" departLane="free" departSpeed="random" />
    <vehicle id="400145" type="Raleigh" route="XXll" depart="425" departLane="free" departSpeed="random" />
    <vehicle id="400146" type="Raleigh" route="XVll" depart="427" departLane="free" departSpeed="random" />
    <vehicle id="400147" type="Raleigh" route="Vlll" depart="430" departLane="free" departSpeed="random" />
    <vehicle id="400148" type="Raleigh" route="Xl" depart="430" departLane="free" departSpeed="random" />
    <vehicle id="400149" type="Raleigh" route="Vlll" depart="434" departLane="free" departSpeed="random" />
    <vehicle id="400150" type="Raleigh" route="Vlll" depart="436" departLane="free" departSpeed="random" />
    <vehicle id="400151" type="Raleigh" route="V" depart="437" departLane="free" departSpeed="random" />
    <vehicle id="400152" type="Raleigh" route="Vlll" depart="438" departLane="free" departSpeed="random" />
    <vehicle id="400153" type="Raleigh" route="Vlll" depart="444" departLane="free" departSpeed="random" />
    <vehicle id="400154" type="Raleigh" route="XXll" depart="446" departLane="free" departSpeed="random" />
    <vehicle id="400155" type="Raleigh" route="Vlll" depart="450" departLane="free" departSpeed="random" />
    <vehicle id="400156" type="Raleigh" route="XXVll" depart="451" departLane="free" departSpeed="random" />
    <vehicle id="400157" type="Raleigh" route="V" depart="452" departLane="free" departSpeed="random" />
    <vehicle id="400158" type="Raleigh" route="Vlll" depart="459" departLane="free" departSpeed="random" />
    <vehicle id="400159" type="Raleigh" route="XXll" depart="459" departLane="free" departSpeed="random" />
    <vehicle id="400160" type="Raleigh" route="V" depart="464" departLane="free" departSpeed="random" />
    <vehicle id="400161" type="Raleigh" route="Vlll" depart="465" departLane="free" departSpeed="random" />
    <vehicle id="400162" type="Raleigh" route="Vlll" depart="467" departLane="free" departSpeed="random" />
    <vehicle id="400163" type="Raleigh" route="V" depart="469" departLane="free" departSpeed="random" />
    <vehicle id="400164" type="Raleigh" route="Vlll" depart="469" departLane="free" departSpeed="random" />
    <vehicle id="400165" type="Raleigh" route="lX" depart="470" departLane="free" departSpeed="random" />
    <vehicle id="400166" type="Raleigh" route="Vlll" depart="473" departLane="free" departSpeed="random" />
    <vehicle id="400167" type="Raleigh" route="Vlll" depart="477" departLane="free" departSpeed="random" />
    <vehicle id="400168" type="Raleigh" route="XVl" depart="480" departLane="free" departSpeed="random" />
    <vehicle id="400169" type="Raleigh" route="V" depart="482" departLane="free" departSpeed="random" />
    <vehicle id="400170" type="Raleigh" route="XXl" depart="483" departLane="free" departSpeed="random" />
    <vehicle id="400171" type="Raleigh" route="Xl" depart="484" departLane="free" departSpeed="random" />
    <vehicle id="400172" type="Raleigh" route="XXVll" depart="489" departLane="free" departSpeed="random" />
    <vehicle id="400173" type="Raleigh" route="XX" depart="490" departLane="free" departSpeed="random" />
    <vehicle id="400174" type="Raleigh" route="Xll" depart="492" departLane="free" departSpeed="random" />
    <vehicle id="400175" type="Raleigh" route="Vlll" depart="495" departLane="free" departSpeed="random" />
    <vehicle id="400176" type="Raleigh" route="XXll" depart="495" departLane="free" departSpeed="random" />
    <vehicle id="400177" type="Raleigh" route="V" depart="503" departLane="free" departSpeed="random" />
    <vehicle id="400178" type="Raleigh" route="Vlll" depart="503" departLane="free" departSpeed="random" />
    <vehicle id="400179" type="Raleigh" route="XXVll" depart="504" departLane="free" departSpeed="random" />
    <vehicle id="400180" type="Raleigh" route="V" depart="512" departLane="free" departSpeed="random" />
    <vehicle id="400181" type="Raleigh" route="Vlll" depart="513" departLane="free" departSpeed="random" />
    <vehicle id="400182" type="Raleigh" route="XXVll" depart="514" departLane="free" departSpeed="random" />
    <vehicle id="400183" type="Raleigh" route="Vlll" depart="515" departLane="free" departSpeed="random" />
    <vehicle id="400184" type="Raleigh" route="XVll" depart="515" departLane="free" departSpeed="random" />
    <vehicle id="400185" type="Raleigh" route="V" depart="520" departLane="free" departSpeed="random" />
    <vehicle id="400186" type="Raleigh" route="lV" depart="521" departLane="free" departSpeed="random" />
    <vehicle id="400187" type="Raleigh" route="V" depart="521" departLane="free" departSpeed="random" />
    <vehicle id="400188" type="Raleigh" route="Vl" depart="523" departLane="free" departSpeed="random" />
    <vehicle id="400189" type="Raleigh" route="Vlll" depart="523" departLane="free" departSpeed="random" />
    <vehicle id="400190" type="Raleigh" route="lll" depart="526" departLane="free" departSpeed="random" />
    <vehicle id="400191" type="Raleigh" route="XVll" depart="531" departLane="free" departSpeed="random" />
    <vehicle id="400192" type="Raleigh" route="XXll" depart="532" departLane="free" departSpeed="random" />
    <vehicle id="400193" type="Raleigh" route="XXVll" depart="536" departLane="free" departSpeed="random" />
    <vehicle id="400194" type="Raleigh" route="Xll" depart="537" departLane="free" departSpeed="random" />
    <vehicle id="400195" type="Raleigh" route="Vlll" depart="541" departLane="free" departSpeed="random" />
    <vehicle id="400196" type="Raleigh" route="X" depart="541" departLane="free" departSpeed="random" />
    <vehicle id="400197" type="Raleigh" route="XVll" depart="544" departLane="free" departSpeed="random" />
    <vehicle id="400198" type="Raleigh" route="l" depart="552" departLane="free" departSpeed="random" />
    <vehicle id="400199" type="Raleigh" route="ll" depart="552" departLane="free" departSpeed="random" />
    <vehicle id="400200" type="Raleigh" route="XXll" depart="553" departLane="free" departSpeed="random" />
    <vehicle id="400201" type="Raleigh" route="Vlll" depart="560" departLane="free" departSpeed="random" />
    <vehicle id="400202" type="Raleigh" route="XXX" depart="564" departLane="free" departSpeed="random" />
    <vehicle id="400203" type="Raleigh" route="Vlll" depart="565" departLane="free" departSpeed="random" />
    <vehicle id="400204" type="Raleigh" route="V" depart="570" departLane="free" departSpeed="random" />
    <vehicle id="400205" type="Raleigh" route="l" depart="571" departLane="free" departSpeed="random" />
    <vehicle id="400206" type="Raleigh" route="ll" depart="577" departLane="free" departSpeed="random" />
    <vehicle id="400207" type="Raleigh" route="Vlll" depart="577" departLane="free" departSpeed="random" />
    <vehicle id="400208" type="Raleigh" route="ll" depart="579" departLane="free" departSpeed="random" />
    <vehicle id="400209" type="Raleigh" route="V" depart="579" departLane="free" departSpeed="random" />
    <vehicle id="400210" type="Raleigh" route="Vl" depart="585" departLane="free" departSpeed="random" />
    <vehicle id="400211" type="Raleigh" route="Vlll" depart="590" departLane="free" departSpeed="random" />
    <vehicle id="400212" type="Raleigh" route="Vlll" depart="591" departLane="free" departSpeed="random" />
    <vehicle id="400213" type="Raleigh" route="ll" depart="593" departLane="free" departSpeed="random" />
    <vehicle id="400214" type="Raleigh" route="Vlll" depart="598" departLane="free" departSpeed="random" />
    <vehicle id="400215" type="Raleigh" route="Vlll" depart="602" departLane="free" departSpeed="random" />
    <vehicle id="400216" type="Raleigh" route="Xl" depart="606" departLane="free" departSpeed="random" />
    <vehicle id="400217" type="Raleigh" route="XXl" depart="606" departLane="free" departSpeed="random" />
    <vehicle id="400218" type="Raleigh" route="Vlll" depart="608" departLane="free" departSpeed="random" />
    <vehicle id="400219" type="Raleigh" route="XXVll" depart="610" departLane="free" departSpeed="random" />
    <vehicle id="400220" type="Raleigh" route="Vlll" depart="611" departLane="free" departSpeed="random" />
    <vehicle id="400221" type="Raleigh" route="Vlll" depart="617" departLane="free" departSpeed="random" />
    <vehicle id="400222" type="Raleigh" route="V" depart="627" departLane="free" departSpeed="random" />
    <vehicle id="400223" type="Raleigh" route="XVll" depart="627" departLane="free" departSpeed="random" />
    <vehicle id="400224" type="Raleigh" route="XXll" depart="628" departLane="free" departSpeed="random" />
    <vehicle id="400225" type="Raleigh" route="Xll" depart="634" departLane="free" departSpeed="random" />
    <vehicle id="400226" type="Raleigh" route="XXll" depart="634" departLane="free" departSpeed="random" />
    <vehicle id="400227" type="Raleigh" route="lll" depart="642" departLane="free" departSpeed="random" />
    <vehicle id="400228" type="Raleigh" route="V" depart="644" departLane="free" departSpeed="random" />
    <vehicle id="400229" type="Raleigh" route="V" depart="645" departLane="free" departSpeed="random" />
    <vehicle id="400230" type="Raleigh" route="XVll" depart="653" departLane="free" departSpeed="random" />
    <vehicle id="400231" type="Raleigh" route="ll" depart="654" departLane="free" departSpeed="random" />
    <vehicle id="400232" type="Raleigh" route="V" depart="659" departLane="free" departSpeed="random" />
    <vehicle id="400233" type="Raleigh" route="V" depart="662" departLane="free" departSpeed="random" />
    <vehicle id="400234" type="Raleigh" route="Vlll" depart="666" departLane="free" departSpeed="random" />
    <vehicle id="400235" type="Raleigh" route="XXl" depart="670" departLane="free" departSpeed="random" />
    <vehicle id="400236" type="Raleigh" route="Vll" depart="672" departLane="free" departSpeed="random" />
    <vehicle id="400237" type="Raleigh" route="Vlll" depart="672" departLane="free" departSpeed="random" />
    <vehicle id="400238" type="Raleigh" route="V" depart="673" departLane="free" departSpeed="random" />
    <vehicle id="400239" type="Raleigh" route="Xlll" depart="673" departLane="free" departSpeed="random" />
    <vehicle id="400240" type="Raleigh" route="Xlll" depart="678" departLane="free" departSpeed="random" />
    <vehicle id="400241" type="Raleigh" route="Vlll" depart="680" departLane="free" departSpeed="random" />
    <vehicle id="400242" type="Raleigh" route="Vlll" depart="683" departLane="free" departSpeed="random" />
    <vehicle id="400243" type="Raleigh" route="XXVll" depart="691" departLane="free" departSpeed="random" />
    <vehicle id="400244" type="Raleigh" route="XVll" depart="693" departLane="free" departSpeed="random" />
    <vehicle id="400245" type="Raleigh" route="V" depart="694" departLane="free" departSpeed="random" />
    <vehicle id="400246" type="Raleigh" route="Vlll" depart="697" departLane="free" departSpeed="random" />
    <vehicle id="400247" type="Raleigh" route="Vlll" depart="698" departLane="free" departSpeed="random" />
    <vehicle id="400248" type="Raleigh" route="ll" depart="700" departLane="free" departSpeed="random" />
    <vehicle id="400249" type="Raleigh" route="XXl" depart="706" departLane="free" departSpeed="random" />
    <vehicle id="400250" type="Raleigh" route="Vlll" depart="707" departLane="free" departSpeed="random" />
    <vehicle id="400251" type="Raleigh" route="Vlll" depart="708" departLane="free" departSpeed="random" />
    <vehicle id="400252" type="Raleigh" route="XXVll" depart="708" departLane="free" departSpeed="random" />
    <vehicle id="400253" type="Raleigh" route="XXVll" depart="709" departLane="free" departSpeed="random" />
    <vehicle id="400254" type="Raleigh" route="Vlll" depart="712" departLane="free" departSpeed="random" />
    <vehicle id="400255" type="Raleigh" route="Vll" depart="715" departLane="free" departSpeed="random" />
    <vehicle id="400256" type="Raleigh" route="X" depart="719" departLane="free" departSpeed="random" />
    <vehicle id="400257" type="Raleigh" route="XVll" depart="719" departLane="free" departSpeed="random" />
    <vehicle id="400258" type="Raleigh" route="Vll" depart="721" departLane="free" departSpeed="random" />
    <vehicle id="400259" type="Raleigh" route="l" depart="726" departLane="free" departSpeed="random" />
    <vehicle id="400260" type="Raleigh" route="Vlll" depart="728" departLane="free" departSpeed="random" />
    <vehicle id="400261" type="Raleigh" route="V" depart="729" departLane="free" departSpeed="random" />
    <vehicle id="400262" type="Raleigh" route="V" depart="732" departLane="free" departSpeed="random" />
    <vehicle id="400263" type="Raleigh" route="Xll" depart="732" departLane="free" departSpeed="random" />