<routes>
        
            <vType id="Berliner" accel="0.8" decel="1.5" sigma="0.5" length="1.6" maxSpeed="5.8" color="255,255,0" guiShape="bicycle" vClass="bicycle" emissionClass="zero"/>  
        
            <route id="l" edges="a_1 1_2 2_3 3_10 10_9 9_c"/>
            <route id="ll" edges="a_1 1_2 2_3 3_11 11_12 12_d"/>
            <route id="lll" edges="a_1 1_2 2_3 3_4 4_5 5_6 6_14 14_13 13_e"/>
            <route id="lV" edges="a_1 1_2 2_3 3_4 4_5 5_6 6_15 15_16 16_f"/>
            <route id="V" edges="a_1 1_2 2_3 3_4 4_5 5_6 6_7 7_8 8_b"/>

            <route id="Vl" edges="b_8 8_7 7_6 6_15 15_16 16_f"/>
            <route id="Vll" edges="b_8 8_7 7_6 6_14 14_13 13_e"/>
            <route id="Vlll" edges="b_8 8_7 7_6 6_5 5_4 4_3 3_2 2_1 1_a"/>
            <route id="lX" edges="b_8 8_7 7_6 6_5 5_4 4_3 3_11 11_12 12_d"/> 
            <route id="X" edges="b_8 8_7 7_6 6_5 5_4 4_3 3_10 10_9 9_c"/>
            
            <route id="Xl" edges="d_12 12_11 11_3 3_10 10_9 9_c"/>
            <route id="Xll" edges="d_12 12_11 11_3  3_2 2_1 1_a "/>
            <route id="Xlll" edges="d_12 12_11 11_3 3_4 4_5 5_6 6_7 7_8 8_b"/>
            <route id="XlV" edges="d_12 12_11 11_3  3_4 4_5 5_6 6_15 15_16 16_f"/> 
            <route id="XV" edges="d_12 12_11 11_3 3_4 4_5 5_6 6_14 14_13 13_e"/>
            
            <route id="XVl" edges="c_9 9_10 10_3 3_2 2_1 1_a"/>
            <route id="XVll" edges="c_9 9_10 10_3 3_11 11_12 12_d"/>
            <route id="XVlll" edges="c_9 9_10 10_3 3_4 4_5 5_6 6_15 15_16 16_f"/>
            <route id="XlX" edges="c_9 9_10 10_3 3_4 4_5 5_6 6_14 14_13 13_e"/> 
            <route id="XX" edges="c_9 9_10 10_3 3_4 4_5 5_6 6_7 7_8 8_b"/>
            
            <route id="XXl" edges="f_16 16_15 15_6 6_7 7_8 8_b"/>
            <route id="XXll" edges="f_16 16_15 15_6 6_14 14_13 13_e"/>
            <route id="XXlll" edges="f_16 16_15 15_6 6_5 5_4 4_3 3_11 11_12 12_d"/>
            <route id="XXlV" edges="f_16 16_15 15_6 6_5 5_4 4_3 3_10 10_9 9_c"/> 
            <route id="XXV" edges="f_16 16_15 15_6 6_5 5_4 4_3 3_2 2_1 1_a"/>
            
            <route id="XXVl" edges="e_13 13_14 14_6 6_7 7_8 8_b"/>
            <route id="XXVll" edges="e_13 13_14 14_6 6_15 15_16 16_f"/>
            <route id="XXVlll" edges="e_13 13_14 14_6 6_5 5_4 4_3 3_11 11_12 12_d"/>
            <route id="XXlX" edges="e_13 13_14 14_6 6_5 5_4 4_3 3_10 10_9 9_c"/> 
            <route id="XXX" edges="e_13 13_14 14_6 6_5 5_4 4_3 3_2 2_1 1_a"/>	
                        
        
    <vehicle id="400000" type="Berliner" route="XVll" depart="11" departLane="free" departSpeed="random" />
    <vehicle id="400001" type="Berliner" route="XXll" depart="13" departLane="free" departSpeed="random" />
    <vehicle id="400002" type="Berliner" route="V" depart="23" departLane="free" departSpeed="random" />
    <vehicle id="400003" type="Berliner" route="Vlll" depart="28" departLane="free" departSpeed="random" />
    <vehicle id="400004" type="Berliner" route="XVll" depart="29" departLane="free" departSpeed="random" />
    <vehicle id="400005" type="Berliner" route="lV" depart="31" departLane="free" departSpeed="random" />
    <vehicle id="400006" type="Berliner" route="l" depart="35" departLane="free" departSpeed="random" />
    <vehicle id="400007" type="Berliner" route="XXVll" depart="40" departLane="free" departSpeed="random" />
    <vehicle id="400008" type="Berliner" route="Vlll" depart="49" departLane="free" departSpeed="random" />
    <vehicle id="400009" type="Berliner" route="XXVll" depart="51" departLane="free" departSpeed="random" />
    <vehicle id="400010" type="Berliner" route="XXVll" depart="57" departLane="free" departSpeed="random" />
    <vehicle id="400011" type="Berliner" route="XXll" depart="60" departLane="free" departSpeed="random" />
    <vehicle id="400012" type="Berliner" route="Xll" depart="64" departLane="free" departSpeed="random" />
    <vehicle id="400013" type="Berliner" route="XXll" depart="70" departLane="free" departSpeed="random" />
    <vehicle id="400014" type="Berliner" route="V" depart="80" departLane="free" departSpeed="random" />
    <vehicle id="400015" type="Berliner" route="V" depart="92" departLane="free" departSpeed="random" />
    <vehicle id="400016" type="Berliner" route="l" depart="95" departLane="free" departSpeed="random" />
    <vehicle id="400017" type="Berliner" route="Xlll" depart="95" departLane="free" departSpeed="random" />
    <vehicle id="400018" type="Berliner" route="Vl" depart="96" departLane="free" departSpeed="random" />
    <vehicle id="400019" type="Berliner" route="Vlll" depart="98" departLane="free" departSpeed="random" />
    <vehicle id="400020" type="Berliner" route="V" depart="100" departLane="free" departSpeed="random" />
    <vehicle id="400021" type="Berliner" route="XXX" depart="101" departLane="free" departSpeed="random" />
    <vehicle id="400022" type="Berliner" route="Vlll" depart="102" departLane="free" departSpeed="random" />
    <vehicle id="400023" type="Berliner" route="Vll" depart="103" departLane="free" departSpeed="random" />
    <vehicle id="400024" type="Berliner" route="l" depart="107" departLane="free" departSpeed="random" />
    <vehicle id="400025" type="Berliner" route="Vl" depart="110" departLane="free" departSpeed="random" />
    <vehicle id="400026" type="Berliner" route="Vlll" depart="110" departLane="free" departSpeed="random" />
    <vehicle id="400027" type="Berliner" route="Vlll" depart="113" departLane="free" departSpeed="random" />
    <vehicle id="400028" type="Berliner" route="V" depart="119" departLane="free" departSpeed="random" />
    <vehicle id="400029" type="Berliner" route="lX" depart="130" departLane="free" departSpeed="random" />
    <vehicle id="400030" type="Berliner" route="Vlll" depart="133" departLane="free" departSpeed="random" />
    <vehicle id="400031" type="Berliner" route="V" depart="135" departLane="free" departSpeed="random" />
    <vehicle id="400032" type="Berliner" route="Vlll" depart="141" departLane="free" departSpeed="random" />
    <vehicle id="400033" type="Berliner" route="Xl" depart="142" departLane="free" departSpeed="random" />
    <vehicle id="400034" type="Berliner" route="V" depart="148" departLane="free" departSpeed="random" />
    <vehicle id="400035" type="Berliner" route="Vlll" depart="149" departLane="free" departSpeed="random" />
    <vehicle id="400036" type="Berliner" route="Vl" depart="153" departLane="free" departSpeed="random" />
    <vehicle id="400037" type="Berliner" route="Xl" depart="157" departLane="free" departSpeed="random" />
    <vehicle id="400038" type="Berliner" route="XXll" depart="159" departLane="free" departSpeed="random" />
    <vehicle id="400039" type="Berliner" route="Vlll" depart="164" departLane="free" departSpeed="random" />
    <vehicle id="400040" type="Berliner" route="lll" depart="165" departLane="free" departSpeed="random" />
    <vehicle id="400041" type="Berliner" route="lV" depart="171" departLane="free" departSpeed="random" />
    <vehicle id="400042" type="Berliner" route="Vlll" depart="172" departLane="free" departSpeed="random" />
    <vehicle id="400043" type="Berliner" route="lX" depart="172" departLane="free" departSpeed="random" />
    <vehicle id="400044" type="Berliner" route="XVll" depart="180" departLane="free" departSpeed="random" />
    <vehicle id="400045" type="Berliner" route="ll" depart="188" departLane="free" departSpeed="random" />
    <vehicle id="400046" type="Berliner" route="V" depart="192" departLane="free" departSpeed="random" />
    <vehicle id="400047" type="Berliner" route="lll" depart="194" departLane="free" departSpeed="random" />
    <vehicle id="400048" type="Berliner" route="Vlll" depart="194" departLane="free" departSpeed="random" />
    <vehicle id="400049" type="Berliner" route="XVll" depart="195" departLane="free" departSpeed="random" />
    <vehicle id="400050" type="Berliner" route="XXVll" depart="200" departLane="free" departSpeed="random" />
    <vehicle id="400051" type="Berliner" route="l" depart="201" departLane="free" departSpeed="random" />
    <vehicle id="400052" type="Berliner" route="ll" depart="201" departLane="free" departSpeed="random" />
    <vehicle id="400053" type="Berliner" route="Vlll" depart="201" departLane="free" departSpeed="random" />
    <vehicle id="400054" type="Berliner" route="XVll" depart="202" departLane="free" departSpeed="random" />
    <vehicle id="400055" type="Berliner" route="Vl" depart="206" departLane="free" departSpeed="random" />
    <vehicle id="400056" type="Berliner" route="XVll" depart="207" departLane="free" departSpeed="random" />
    <vehicle id="400057" type="Berliner" route="V" depart="208" departLane="free" departSpeed="random" />
    <vehicle id="400058" type="Berliner" route="V" depart="209" departLane="free" departSpeed="random" />
    <vehicle id="400059" type="Berliner" route="l" depart="210" departLane="free" departSpeed="random" />
    <vehicle id="400060" type="Berliner" route="X" depart="210" departLane="free" departSpeed="random" />
    <vehicle id="400061" type="Berliner" route="lV" depart="218" departLane="free" departSpeed="random" />
    <vehicle id="400062" type="Berliner" route="Vlll" depart="224" departLane="free" departSpeed="random" />
    <vehicle id="400063" type="Berliner" route="XXll" depart="228" departLane="free" departSpeed="random" />
    <vehicle id="400064" type="Berliner" route="V" depart="230" departLane="free" departSpeed="random" />
    <vehicle id="400065" type="Berliner" route="V" depart="237" departLane="free" departSpeed="random" />
    <vehicle id="400066" type="Berliner" route="Vlll" depart="245" departLane="free" departSpeed="random" />
    <vehicle id="400067" type="Berliner" route="XXl" depart="245" departLane="free" departSpeed="random" />
    <vehicle id="400068" type="Berliner" route="Vlll" depart="246" departLane="free" departSpeed="random" />
    <vehicle id="400069" type="Berliner" route="Vlll" depart="249" departLane="free" departSpeed="random" />
    <vehicle id="400070" type="Berliner" route="XXVll" depart="251" departLane="free" departSpeed="random" />
    <vehicle id="400071" type="Berliner" route="Vlll" depart="255" departLane="free" departSpeed="random" />
    <vehicle id="400072" type="Berliner" route="l" depart="257" departLane="free" departSpeed="random" />
    <vehicle id="400073" type="Berliner" route="Vlll" depart="257" departLane="free" departSpeed="random" />
    <vehicle id="400074" type="Berliner" route="XXVll" depart="257" departLane="free" departSpeed="random" />
    <vehicle id="400075" type="Berliner" route="Xl" depart="260" departLane="free" departSpeed="random" />
    <vehicle id="400076" type="Berliner" route="Vlll" depart="266" departLane="free" departSpeed="random" />
    <vehicle id="400077" type="Berliner" route="V" depart="273" departLane="free" departSpeed="random" />
    <vehicle id="400078" type="Berliner" route="Vlll" depart="277" departLane="free" departSpeed="random" />
    <vehicle id="400079" type="Berliner" route="Xl" depart="281" departLane="free" departSpeed="random" />
    <vehicle id="400080" type="Berliner" route="V" depart="283" departLane="free" departSpeed="random" />
    <vehicle id="400081" type="Berliner" route="lX" depart="283" departLane="free" departSpeed="random" />
    <vehicle id="400082" type="Berliner" route="XVll" depart="283" departLane="free" departSpeed="random" />
    <vehicle id="400083" type="Berliner" route="Vlll" depart="288" departLane="free" departSpeed="random" />
    <vehicle id="400084" type="Berliner" route="V" depart="290" departLane="free" departSpeed="random" />
    <vehicle id="400085" type="Berliner" route="Vlll" depart="295" departLane="free" departSpeed="random" />
    <vehicle id="400086" type="Berliner" route="XVll" depart="300" departLane="free" departSpeed="random" />
    <vehicle id="400087" type="Berliner" route="Vlll" depart="301" departLane="free" departSpeed="random" />
    <vehicle id="400088" type="Berliner" route="XVll" depart="301" departLane="free" departSpeed="random" />
    <vehicle id="400089" type="Berliner" route="lX" depart="304" departLane="free" departSpeed="random" />
    <vehicle id="400090" type="Berliner" route="Vlll" depart="310" departLane="free" departSpeed="random" />
    <vehicle id="400091" type="Berliner" route="Vlll" depart="311" departLane="free" departSpeed="random" />
    <vehicle id="400092" type="Berliner" route="V" depart="313" departLane="free" departSpeed="random" />
    <vehicle id="400093" type="Berliner" route="l" depart="314" departLane="free" departSpeed="random" />
    <vehicle id="400094" type="Berliner" route="Vlll" depart="314" departLane="free" departSpeed="random" />
    <vehicle id="400095" type="Berliner" route="V" depart="326" departLane="free" departSpeed="random" />
    <vehicle id="400096" type="Berliner" route="ll" depart="327" departLane="free" departSpeed="random" />
    <vehicle id="400097" type="Berliner" route="V" depart="352" departLane="free" departSpeed="random" />
    <vehicle id="400098" type="Berliner" route="V" depart="354" departLane="free" departSpeed="random" />
    <vehicle id="400099" type="Berliner" route="ll" depart="355" departLane="free" departSpeed="random" />
    <vehicle id="400100" type="Berliner" route="Vll" depart="361" departLane="free" departSpeed="random" />
    <vehicle id="400101" type="Berliner" route="X" depart="361" departLane="free" departSpeed="random" />
    <vehicle id="400102" type="Berliner" route="Vlll" depart="363" departLane="free" departSpeed="random" />
    <vehicle id="400103" type="Berliner" route="Vlll" depart="365" departLane="free" departSpeed="random" />
    <vehicle id="400104" type="Berliner" route="Vlll" depart="368" departLane="free" departSpeed="random" />
    <vehicle id="400105" type="Berliner" route="XXX" depart="369" departLane="free" departSpeed="random" />
    <vehicle id="400106" type="Berliner" route="Vlll" depart="372" departLane="free" departSpeed="random" />
    <vehicle id="400107" type="Berliner" route="Vll" depart="374" departLane="free" departSpeed="random" />
    <vehicle id="400108" type="Berliner" route="V" depart="375" departLane="free" departSpeed="random" />
    <vehicle id="400109" type="Berliner" route="ll" depart="377" departLane="free" departSpeed="random" />
    <vehicle id="400110" type="Berliner" route="XXll" depart="379" departLane="free" departSpeed="random" />
    <vehicle id="400111" type="Berliner" route="Vll" depart="387" departLane="free" departSpeed="random" />
    <vehicle id="400112" type="Berliner" route="V" depart="391" departLane="free" departSpeed="random" />
    <vehicle id="400113" type="Berliner" route="Vlll" depart="393" departLane="free" departSpeed="random" />
    <vehicle id="400114" type="Berliner" route="XXVl" depart="404" departLane="free" departSpeed="random" />
    <vehicle id="400115" type="Berliner" route="V" depart="416" departLane="free" departSpeed="random" />
    <vehicle id="400116" type="Berliner" route="XXVll" depart="424" departLane="free" departSpeed="random" />
    <vehicle id="400117" type="Berliner" route="XXll" depart="427" departLane="free" departSpeed="random" />
    <vehicle id="400118" type="Berliner" route="Vlll" depart="432" departLane="free" departSpeed="random" />
    <vehicle id="400119" type="Berliner" route="XVll" depart="440" departLane="free" departSpeed="random" />
    <vehicle id="400120" type="Berliner" route="XXVll" depart="445" departLane="free" departSpeed="random" />
    <vehicle id="400121" type="Berliner" route="Xl" depart="450" departLane="free" departSpeed="random" />
    <vehicle id="400122" type="Berliner" route="XVll" depart="453" departLane="free" departSpeed="random" />
    <vehicle id="400123" type="Berliner" route="X" depart="460" departLane="free" departSpeed="random" />
    <vehicle id="400124" type="Berliner" route="V" depart="465" departLane="free" departSpeed="random" />
    <vehicle id="400125" type="Berliner" route="XVll" depart="466" departLane="free" departSpeed="random" />
    <vehicle id="400126" type="Berliner" route="X" depart="467" departLane="free" departSpeed="random" />
    <vehicle id="400127" type="Berliner" route="V" depart="469" departLane="free" departSpeed="random" />
    <vehicle id="400128" type="Berliner" route="Vlll" depart="470" departLane="free" departSpeed="random" />
    <vehicle id="400129" type="Berliner" route="l" depart="485" departLane="free" departSpeed="random" />
    <vehicle id="400130" type="Berliner" route="XVll" depart="489" departLane="free" departSpeed="random" />
    <vehicle id="400131" type="Berliner" route="Vlll" depart="496" departLane="free" departSpeed="random" />
    <vehicle id="400132" type="Berliner" route="XXll" depart="497" departLane="free" departSpeed="random" />
    <vehicle id="400133" type="Berliner" route="Vlll" depart="501" departLane="free" departSpeed="random" />
    <vehicle id="400134" type="Berliner" route="V" depart="506" departLane="free" departSpeed="random" />
    <vehicle id="400135" type="Berliner" route="Vlll" depart="508" departLane="free" departSpeed="random" />
    <vehicle id="400136" type="Berliner" route="V" depart="509" departLane="free" departSpeed="random" />
    <vehicle id="400137" type="Berliner" route="Vlll" depart="515" departLane="free" departSpeed="random" />
    <vehicle id="400138" type="Berliner" route="Vlll" depart="521" departLane="free" departSpeed="random" />
    <vehicle id="400139" type="Berliner" route="XXVll" depart="522" departLane="free" departSpeed="random" />
    <vehicle id="400140" type="Berliner" route="Vlll" depart="523" departLane="free" departSpeed="random" />
    <vehicle id="400141" type="Berliner" route="lX" depart="523" departLane="free" departSpeed="random" />
    <vehicle id="400142" type="Berliner" route="V" depart="524" departLane="free" departSpeed="random" />
    <vehicle id="400143" type="Berliner" route="V" depart="528" departLane="free" departSpeed="random" />
    <vehicle id="400144" type="Berliner" route="Vlll" depart="533" departLane="free" departSpeed="random" />
    <vehicle id="400145" type="Berliner" route="XVll" depart="534" departLane="free" departSpeed="random" />
    <vehicle id="400146" type="Berliner" route="Vlll" depart="536" departLane="free" departSpeed="random" />
    <vehicle id="400147" type="Berliner" route="V" depart="541" departLane="free" departSpeed="random" />
    <vehicle id="400148" type="Berliner" route="XXll" depart="541" departLane="free" departSpeed="random" />
    <vehicle id="400149" type="Berliner" route="XVl" depart="542" departLane="free" departSpeed="random" />
    <vehicle id="400150" type="Berliner" route="V" depart="546" departLane="free" departSpeed="random" />
    <vehicle id="400151" type="Berliner" route="V" depart="547" departLane="free" departSpeed="random" />
    <vehicle id="400152" type="Berliner" route="XXVll" depart="560" departLane="free" departSpeed="random" />
    <vehicle id="400153" type="Berliner" route="XXVll" depart="561" departLane="free" departSpeed="random" />
    <vehicle id="400154" type="Berliner" route="XXX" depart="562" departLane="free" departSpeed="random" />
    <vehicle id="400155" type="Berliner" route="Vlll" depart="563" departLane="free" departSpeed="random" />
    <vehicle id="400156" type="Berliner" route="ll" depart="566" departLane="free" departSpeed="random" />
    <vehicle id="400157" type="Berliner" route="Vlll" depart="571" departLane="free" departSpeed="random" />
    <vehicle id="400158" type="Berliner" route="Vll" depart="575" departLane="free" departSpeed="random" />
    <vehicle id="400159" type="Berliner" route="Xl" depart="576" departLane="free" departSpeed="random" />
    <vehicle id="400160" type="Berliner" route="ll" depart="582" departLane="free" departSpeed="random" />
    <vehicle id="400161" type="Berliner" route="V" depart="597" departLane="free" departSpeed="random" />
    <vehicle id="400162" type="Berliner" route="Vll" depart="602" departLane="free" departSpeed="random" />
    <vehicle id="400163" type="Berliner" route="Vll" depart="608" departLane="free" departSpeed="random" />
    <vehicle id="400164" type="Berliner" route="Xl" depart="610" departLane="free" departSpeed="random" />
    <vehicle id="400165" type="Berliner" route="V" depart="611" departLane="free" departSpeed="random" />
    <vehicle id="400166" type="Berliner" route="XVll" depart="612" departLane="free" departSpeed="random" />
    <vehicle id="400167" type="Berliner" route="V" depart="619" departLane="free" departSpeed="random" />
    <vehicle id="400168" type="Berliner" route="V" depart="622" departLane="free" departSpeed="random" />
    <vehicle id="400169" type="Berliner" route="ll" depart="627" departLane="free" departSpeed="random" />
    <vehicle id="400170" type="Berliner" route="XVll" depart="628" departLane="free" departSpeed="random" />
    <vehicle id="400171" type="Berliner" route="ll" depart="631" departLane="free" departSpeed="random" />
    <vehicle id="400172" type="Berliner" route="ll" depart="632" departLane="free" departSpeed="random" />
    <vehicle id="400173" type="Berliner" route="XXll" depart="636" departLane="free" departSpeed="random" />
    <vehicle id="400174" type="Berliner" route="Xl" depart="640" departLane="free" departSpeed="random" />
    <vehicle id="400175" type="Berliner" route="XXVll" depart="640" departLane="free" departSpeed="random" />
    <vehicle id="400176" type="Berliner" route="XXVll" depart="645" departLane="free" departSpeed="random" />
    <vehicle id="400177" type="Berliner" route="Vlll" depart="648" departLane="free" departSpeed="random" />
    <vehicle id="400178" type="Berliner" route="Vlll" depart="653" departLane="free" departSpeed="random" />
    <vehicle id="400179" type="Berliner" route="X" depart="653" departLane="free" departSpeed="random" />
    <vehicle id="400180" type="Berliner" route="Xll" depart="659" departLane="free" departSpeed="random" />
    <vehicle id="400181" type="Berliner" route="lX" depart="675" departLane="free" departSpeed="random" />
    <vehicle id="400182" type="Berliner" route="XXVll" depart="675" departLane="free" departSpeed="random" />
    <vehicle id="400183" type="Berliner" route="V" depart="677" departLane="free" departSpeed="random" />
    <vehicle id="400184" type="Berliner" route="Vlll" depart="680" departLane="free" departSpeed="random" />
    <vehicle id="400185" type="Berliner" route="V" depart="681" departLane="free" departSpeed="random" />
    <vehicle id="400186" type="Berliner" route="V" depart="683" departLane="free" departSpeed="random" />
    <vehicle id="400187" type="Berliner" route="V" depart="685" departLane="free" departSpeed="random" />
    <vehicle id="400188" type="Berliner" route="Vlll" depart="695" departLane="free" departSpeed="random" />
    <vehicle id="400189" type="Berliner" route="Vlll" depart="697" departLane="free" departSpeed="random" />
    <vehicle id="400190" type="Berliner" route="Vlll" depart="708" departLane="free" departSpeed="random" />
    <vehicle id="400191" type="Berliner" route="l" depart="709" departLane="free" departSpeed="random" />
    <vehicle id="400192" type="Berliner" route="Vlll" depart="714" departLane="free" departSpeed="random" />
    <vehicle id="400193" type="Berliner" route="V" depart="715" departLane="free" departSpeed="random" />
    <vehicle id="400194" type="Berliner" route="Xl" depart="718" departLane="free" departSpeed="random" />
    <vehicle id="400195" type="Berliner" route="V" depart="720" departLane="free" departSpeed="random" />
    <vehicle id="400196" type="Berliner" route="Xl" depart="724" departLane="free" departSpeed="random" />
    <vehicle id="400197" type="Berliner" route="lX" depart="727" departLane="free" departSpeed="random" />
    <vehicle id="400198" type="Berliner" route="l" depart="730" departLane="free" departSpeed="random" />
    <vehicle id="400199" type="Berliner" route="XXVll" depart="730" departLane="free" departSpeed="random" />
    <vehicle id="400200" type="Berliner" route="Vlll" depart="732" departLane="free" departSpeed="random" />
    <vehicle id="400201" type="Berliner" route="Vll" depart="733" departLane="free" departSpeed="random" />
    <vehicle id="400202" type="Berliner" route="ll" depart="735" departLane="free" departSpeed="random" />
    <vehicle id="400203" type="Berliner" route="Xl" depart="735" departLane="free" departSpeed="random" />
    <vehicle id="400204" type="Berliner" route="Vlll" depart="736" departLane="free" departSpeed="random" />
    <vehicle id="400205" type="Berliner" route="Vll" depart="739" departLane="free" departSpeed="random" />
    <vehicle id="400206" type="Berliner" route="Vlll" depart="740" departLane="free" departSpeed="random" />
    <vehicle id="400207" type="Berliner" route="V" depart="745" departLane="free" departSpeed="random" />
    <vehicle id="400208" type="Berliner" route="Xll" depart="747" departLane="free" departSpeed="random" />
    <vehicle id="400209" type="Berliner" route="V" depart="754" departLane="free" departSpeed="random" />
    <vehicle id="400210" type="Berliner" route="Xl" depart="754" departLane="free" departSpeed="random" />
    <vehicle id="400211" type="Berliner" route="Vl" depart="757" departLane="free" departSpeed="random" />
    <vehicle id="400212" type="Berliner" route="Vll" depart="758" departLane="free" departSpeed="random" />
    <vehicle id="400213" type="Berliner" route="lll" depart="759" departLane="free" departSpeed="random" />
    <vehicle id="400214" type="Berliner" route="V" depart="765" departLane="free" departSpeed="random" />
    <vehicle id="400215" type="Berliner" route="XVll" depart="765" departLane="free" departSpeed="random" />
    <vehicle id="400216" type="Berliner" route="V" depart="773" departLane="free" departSpeed="random" />
    <vehicle id="400217" type="Berliner" route="XVll" depart="778" departLane="free" departSpeed="random" />
    <vehicle id="400218" type="Berliner" route="XXVll" depart="781" departLane="free" departSpeed="random" />
    <vehicle id="400219" type="Berliner" route="Vll" depart="786" departLane="free" departSpeed="random" />
    <vehicle id="400220" type="Berliner" route="XXVll" depart="795" departLane="free" departSpeed="random" />
    <vehicle id="400221" type="Berliner" route="XXll" depart="797" departLane="free" departSpeed="random" />
    <vehicle id="400222" type="Berliner" route="V" depart="804" departLane="free" departSpeed="random" />
    <vehicle id="400223" type="Berliner" route="V" depart="806" departLane="free" departSpeed="random" />
    <vehicle id="400224" type="Berliner" route="XXVll" depart="806" departLane="free" departSpeed="random" />
    <vehicle id="400225" type="Berliner" route="V" depart="808" departLane="free" departSpeed="random" />
    <vehicle id="400226" type="Berliner" route="Vlll" depart="810" departLane="free" departSpeed="random" />
    <vehicle id="400227" type="Berliner" route="Xll" depart="810" departLane="free" departSpeed="random" />
    <vehicle id="400228" type="Berliner" route="V" depart="811" departLane="free" departSpeed="random" />
    <vehicle id="400229" type="Berliner" route="Vlll" depart="819" departLane="free" departSpeed="random" />
    <vehicle id="400230" type="Berliner" route="V" depart="820" departLane="free" departSpeed="random" />
    <vehicle id="400231" type="Berliner" route="V" depart="821" departLane="free" departSpeed="random" />
    <vehicle id="400232" type="Berliner" route="XXll" depart="829" departLane="free" departSpeed="random" />
    <vehicle id="400233" type="Berliner" route="lV" depart="832" departLane="free" departSpeed="random" />
    <vehicle id="400234" type="Berliner" route="XXll" depart="832" departLane="free" departSpeed="random" />
    <vehicle id="400235" type="Berliner" route="lX" depart="833" departLane="free" departSpeed="random" />
    <vehicle id="400236" type="Berliner" route="Vll" depart="838" departLane="free" departSpeed="random" />
    <vehicle id="400237" type="Berliner" route="Vlll" depart="841" departLane="free" departSpeed="random" />
    <vehicle id="400238" type="Berliner" route="Vlll" depart="847" departLane="free" departSpeed="random" />
    <vehicle id="400239" type="Berliner" route="XVll" depart="847" departLane="free" departSpeed="random" />
    <vehicle id="400240" type="Berliner" route="V" depart="849" departLane="free" departSpeed="random" />
    <vehicle id="400241" type="Berliner" route="XXll" depart="867" departLane="free" departSpeed="random" />
    <vehicle id="400242" type="Berliner" route="Vlll" depart="868" departLane="free" departSpeed="random" />
    <vehicle id="400243" type="Berliner" route="XXll" depart="868" departLane="free" departSpeed="random" />
    <vehicle id="400244" type="Berliner" route="Xll" depart="869" departLane="free" departSpeed="random" />
    <vehicle id="400245" type="Berliner" route="Vlll" depart="874" departLane="free" departSpeed="random" />
    <vehicle id="400246" type="Berliner" route="V" depart="880" departLane="free" departSpeed="random" />
    <vehicle id="400247" type="Berliner" route="l" depart="881" departLane="free" departSpeed="random" />
    <vehicle id="400248" type="Berliner" route="Vlll" depart="881" departLane="free" departSpeed="random" />
    <vehicle id="400249" type="Berliner" route="XXll" depart="881" departLane="free" departSpeed="random" />
    <vehicle id="400250" type="Berliner" route="Xll" depart="882" departLane="free" departSpeed="random" />
    <vehicle id="400251" type="Berliner" route="XXll" depart="882" departLane="free" departSpeed="random" />
    <vehicle id="400252" type="Berliner" route="V" depart="885" departLane="free" departSpeed="random" />
    <vehicle id="400253" type="Berliner" route="Vl" depart="886" departLane="free" departSpeed="random" />
    <vehicle id="400254" type="Berliner" route="Vlll" depart="887" departLane="free" departSpeed="random" />