<routes>
        
            <vType id="Berliner" accel="0.8" decel="1.5" sigma="0.5" length="1.6" maxSpeed="5.8" color="255,255,0" guiShape="bicycle" vClass="bicycle" emissionClass="zero"/>  
        
            <route id="1" edges="a_1 1_2 2_3 3_10 10_9 9_c"/>
            <route id="2" edges="a_1 1_2 2_3 3_11 11_12 12_d"/>
            <route id="3" edges="a_1 1_2 2_3 3_4 4_5 5_6 6_14 14_13 13_e"/>
            <route id="4" edges="a_1 1_2 2_3 3_4 4_5 5_6 6_15 15_16 16_f"/>
            <route id="5" edges="a_1 1_2 2_3 3_4 4_5 5_6 6_7 7_8 8_b"/>

            <route id="6" edges="b_8 8_7 7_6 6_15 15_16 16_f"/>
            <route id="7" edges="b_8 8_7 7_6 6_14 14_13 13_e"/>
            <route id="8" edges="b_8 8_7 7_6 6_5 5_4 4_3 3_2 2_1 1_a"/>
            <route id="9" edges="b_8 8_7 7_6 6_5 5_4 4_3 3_11 11_12 12_d"/> 
            <route id="10" edges="b_8 8_7 7_6 6_5 5_4 4_3 3_10 10_9 9_c"/>
            
            <route id="11" edges="d_12 12_11 11_3 3_10 10_9 9_c"/>
            <route id="12" edges="d_12 12_11 11_3  3_2 2_1 1_a "/>
            <route id="13" edges="d_12 12_11 11_3 3_4 4_5 5_6 6_7 7_8 8_b"/>
            <route id="14" edges="d_12 12_11 11_3  3_4 4_5 5_6 6_15 15_16 16_f"/> 
            <route id="15" edges="d_12 12_11 11_3 3_4 4_5 5_6 6_14 14_13 13_e"/>
            
            <route id="16" edges="c_9 9_10 10_3 3_2 2_1 1_a"/>
            <route id="17" edges="c_9 9_10 10_3 3_11 11_12 12_d"/>
            <route id="18" edges="c_9 9_10 10_3 3_4 4_5 5_6 6_15 15_16 16_f"/>
            <route id="19" edges="c_9 9_10 10_3 3_4 4_5 5_6 6_14 14_13 13_e"/> 
            <route id="20" edges="c_9 9_10 10_3 3_4 4_5 5_6 6_7 7_8 8_b"/>
            
            <route id="21" edges="f_16 16_15 15_6 6_7 7_8 8_b"/>
            <route id="22" edges="f_16 16_15 15_6 6_14 14_13 13_e"/>
            <route id="23" edges="f_16 16_15 15_6 6_5 5_4 4_3 3_11 11_12 12_d"/>
            <route id="24" edges="f_16 16_15 15_6 6_5 5_4 4_3 3_10 10_9 9_c"/> 
            <route id="25" edges="f_16 16_15 15_6 6_5 5_4 4_3 3_2 2_1 1_a"/>
            
            <route id="26" edges="e_13 13_14 14_6 6_7 7_8 8_b"/>
            <route id="27" edges="e_13 13_14 14_6 6_15 15_16 16_f"/>
            <route id="28" edges="e_13 13_14 14_6 6_5 5_4 4_3 3_11 11_12 12_d"/>
            <route id="29" edges="e_13 13_14 14_6 6_5 5_4 4_3 3_10 10_9 9_c"/> 
            <route id="30" edges="e_13 13_14 14_6 6_5 5_4 4_3 3_2 2_1 1_a"/>	
                        
        
    <vehicle id="0" type="Berliner" route="17" depart="1" departLane="free" departSpeed="random" />
    <vehicle id="1" type="Berliner" route="27" depart="1" departLane="free" departSpeed="random" />
    <vehicle id="2" type="Berliner" route="8" depart="4" departLane="free" departSpeed="random" />
    <vehicle id="3" type="Berliner" route="5" depart="5" departLane="free" departSpeed="random" />
    <vehicle id="4" type="Berliner" route="8" depart="10" departLane="free" departSpeed="random" />
    <vehicle id="5" type="Berliner" route="21" depart="14" departLane="free" departSpeed="random" />
    <vehicle id="6" type="Berliner" route="27" depart="17" departLane="free" departSpeed="random" />
    <vehicle id="7" type="Berliner" route="11" depart="23" departLane="free" departSpeed="random" />
    <vehicle id="8" type="Berliner" route="17" depart="23" departLane="free" departSpeed="random" />
    <vehicle id="9" type="Berliner" route="5" depart="41" departLane="free" departSpeed="random" />
    <vehicle id="10" type="Berliner" route="17" depart="46" departLane="free" departSpeed="random" />
    <vehicle id="11" type="Berliner" route="5" depart="53" departLane="free" departSpeed="random" />
    <vehicle id="12" type="Berliner" route="17" depart="55" departLane="free" departSpeed="random" />
    <vehicle id="13" type="Berliner" route="27" depart="56" departLane="free" departSpeed="random" />
    <vehicle id="14" type="Berliner" route="8" depart="59" departLane="free" departSpeed="random" />
    <vehicle id="15" type="Berliner" route="5" depart="62" departLane="free" departSpeed="random" />
    <vehicle id="16" type="Berliner" route="27" depart="64" departLane="free" departSpeed="random" />
    <vehicle id="17" type="Berliner" route="5" depart="68" departLane="free" departSpeed="random" />
    <vehicle id="18" type="Berliner" route="8" depart="68" departLane="free" departSpeed="random" />
    <vehicle id="19" type="Berliner" route="5" depart="70" departLane="free" departSpeed="random" />
    <vehicle id="20" type="Berliner" route="26" depart="74" departLane="free" departSpeed="random" />
    <vehicle id="21" type="Berliner" route="17" depart="78" departLane="free" departSpeed="random" />
    <vehicle id="22" type="Berliner" route="9" depart="79" departLane="free" departSpeed="random" />
    <vehicle id="23" type="Berliner" route="1" depart="85" departLane="free" departSpeed="random" />
    <vehicle id="24" type="Berliner" route="27" depart="86" departLane="free" departSpeed="random" />
    <vehicle id="25" type="Berliner" route="27" depart="90" departLane="free" departSpeed="random" />
    <vehicle id="26" type="Berliner" route="27" depart="95" departLane="free" departSpeed="random" />
    <vehicle id="27" type="Berliner" route="8" depart="105" departLane="free" departSpeed="random" />
    <vehicle id="28" type="Berliner" route="17" depart="109" departLane="free" departSpeed="random" />
    <vehicle id="29" type="Berliner" route="5" depart="115" departLane="free" departSpeed="random" />
    <vehicle id="30" type="Berliner" route="8" depart="117" departLane="free" departSpeed="random" />
    <vehicle id="31" type="Berliner" route="17" depart="117" departLane="free" departSpeed="random" />
    <vehicle id="32" type="Berliner" route="27" depart="119" departLane="free" departSpeed="random" />
    <vehicle id="33" type="Berliner" route="27" depart="120" departLane="free" departSpeed="random" />
    <vehicle id="34" type="Berliner" route="27" depart="123" departLane="free" departSpeed="random" />
    <vehicle id="35" type="Berliner" route="11" depart="128" departLane="free" departSpeed="random" />
    <vehicle id="36" type="Berliner" route="5" depart="129" departLane="free" departSpeed="random" />
    <vehicle id="37" type="Berliner" route="8" depart="134" departLane="free" departSpeed="random" />
    <vehicle id="38" type="Berliner" route="17" depart="134" departLane="free" departSpeed="random" />
    <vehicle id="39" type="Berliner" route="6" depart="143" departLane="free" departSpeed="random" />
    <vehicle id="40" type="Berliner" route="5" depart="156" departLane="free" departSpeed="random" />
    <vehicle id="41" type="Berliner" route="5" depart="157" departLane="free" departSpeed="random" />
    <vehicle id="42" type="Berliner" route="10" depart="161" departLane="free" departSpeed="random" />
    <vehicle id="43" type="Berliner" route="5" depart="162" departLane="free" departSpeed="random" />
    <vehicle id="44" type="Berliner" route="5" depart="165" departLane="free" departSpeed="random" />
    <vehicle id="45" type="Berliner" route="27" depart="172" departLane="free" departSpeed="random" />
    <vehicle id="46" type="Berliner" route="19" depart="173" departLane="free" departSpeed="random" />
    <vehicle id="47" type="Berliner" route="8" depart="184" departLane="free" departSpeed="random" />
    <vehicle id="48" type="Berliner" route="1" depart="192" departLane="free" departSpeed="random" />
    <vehicle id="49" type="Berliner" route="14" depart="195" departLane="free" departSpeed="random" />
    <vehicle id="50" type="Berliner" route="5" depart="197" departLane="free" departSpeed="random" />
    <vehicle id="51" type="Berliner" route="8" depart="208" departLane="free" departSpeed="random" />
    <vehicle id="52" type="Berliner" route="8" depart="219" departLane="free" departSpeed="random" />
    <vehicle id="53" type="Berliner" route="8" depart="227" departLane="free" departSpeed="random" />
    <vehicle id="54" type="Berliner" route="2" depart="228" departLane="free" departSpeed="random" />
    <vehicle id="55" type="Berliner" route="5" depart="230" departLane="free" departSpeed="random" />
    <vehicle id="56" type="Berliner" route="8" depart="231" departLane="free" departSpeed="random" />
    <vehicle id="57" type="Berliner" route="8" depart="234" departLane="free" departSpeed="random" />
    <vehicle id="58" type="Berliner" route="5" depart="239" departLane="free" departSpeed="random" />
    <vehicle id="59" type="Berliner" route="9" depart="248" departLane="free" departSpeed="random" />
    <vehicle id="60" type="Berliner" route="2" depart="251" departLane="free" departSpeed="random" />
    <vehicle id="61" type="Berliner" route="5" depart="251" departLane="free" departSpeed="random" />
    <vehicle id="62" type="Berliner" route="8" depart="254" departLane="free" departSpeed="random" />
    <vehicle id="63" type="Berliner" route="11" depart="255" departLane="free" departSpeed="random" />
    <vehicle id="64" type="Berliner" route="27" depart="258" departLane="free" departSpeed="random" />
    <vehicle id="65" type="Berliner" route="5" depart="260" departLane="free" departSpeed="random" />
    <vehicle id="66" type="Berliner" route="8" depart="266" departLane="free" departSpeed="random" />
    <vehicle id="67" type="Berliner" route="8" depart="267" departLane="free" departSpeed="random" />
    <vehicle id="68" type="Berliner" route="17" depart="267" departLane="free" departSpeed="random" />
    <vehicle id="69" type="Berliner" route="9" depart="272" departLane="free" departSpeed="random" />
    <vehicle id="70" type="Berliner" route="6" depart="281" departLane="free" departSpeed="random" />
    <vehicle id="71" type="Berliner" route="3" depart="282" departLane="free" departSpeed="random" />
    <vehicle id="72" type="Berliner" route="7" depart="286" departLane="free" departSpeed="random" />
    <vehicle id="73" type="Berliner" route="9" depart="288" departLane="free" departSpeed="random" />
    <vehicle id="74" type="Berliner" route="8" depart="295" departLane="free" departSpeed="random" />
    <vehicle id="75" type="Berliner" route="14" depart="297" departLane="free" departSpeed="random" />
    <vehicle id="76" type="Berliner" route="10" depart="305" departLane="free" departSpeed="random" />
    <vehicle id="77" type="Berliner" route="11" depart="317" departLane="free" departSpeed="random" />
    <vehicle id="78" type="Berliner" route="5" depart="323" departLane="free" departSpeed="random" />
    <vehicle id="79" type="Berliner" route="8" depart="324" departLane="free" departSpeed="random" />
    <vehicle id="80" type="Berliner" route="22" depart="328" departLane="free" departSpeed="random" />
    <vehicle id="81" type="Berliner" route="8" depart="331" departLane="free" departSpeed="random" />
    <vehicle id="82" type="Berliner" route="8" depart="336" departLane="free" departSpeed="random" />
    <vehicle id="83" type="Berliner" route="8" depart="340" departLane="free" departSpeed="random" />
    <vehicle id="84" type="Berliner" route="8" depart="344" departLane="free" departSpeed="random" />
    <vehicle id="85" type="Berliner" route="8" depart="348" departLane="free" departSpeed="random" />
    <vehicle id="86" type="Berliner" route="21" depart="350" departLane="free" departSpeed="random" />
    <vehicle id="87" type="Berliner" route="2" depart="354" departLane="free" departSpeed="random" />
    <vehicle id="88" type="Berliner" route="4" depart="358" departLane="free" departSpeed="random" />
    <vehicle id="89" type="Berliner" route="11" depart="363" departLane="free" departSpeed="random" />
    <vehicle id="90" type="Berliner" route="17" depart="363" departLane="free" departSpeed="random" />
    <vehicle id="91" type="Berliner" route="6" depart="370" departLane="free" departSpeed="random" />
    <vehicle id="92" type="Berliner" route="8" depart="374" departLane="free" departSpeed="random" />
    <vehicle id="93" type="Berliner" route="5" depart="378" departLane="free" departSpeed="random" />
    <vehicle id="94" type="Berliner" route="22" depart="383" departLane="free" departSpeed="random" />
    <vehicle id="95" type="Berliner" route="2" depart="387" departLane="free" departSpeed="random" />
    <vehicle id="96" type="Berliner" route="5" depart="389" departLane="free" departSpeed="random" />
    <vehicle id="97" type="Berliner" route="5" depart="391" departLane="free" departSpeed="random" />
    <vehicle id="98" type="Berliner" route="2" depart="401" departLane="free" departSpeed="random" />
    <vehicle id="99" type="Berliner" route="7" depart="404" departLane="free" departSpeed="random" />
    <vehicle id="100" type="Berliner" route="8" depart="407" departLane="free" departSpeed="random" />
    <vehicle id="101" type="Berliner" route="8" depart="409" departLane="free" departSpeed="random" />
    <vehicle id="102" type="Berliner" route="30" depart="414" departLane="free" departSpeed="random" />
    <vehicle id="103" type="Berliner" route="5" depart="422" departLane="free" departSpeed="random" />
    <vehicle id="104" type="Berliner" route="27" depart="424" departLane="free" departSpeed="random" />
    <vehicle id="105" type="Berliner" route="8" depart="431" departLane="free" departSpeed="random" />
    <vehicle id="106" type="Berliner" route="8" depart="437" departLane="free" departSpeed="random" />
    <vehicle id="107" type="Berliner" route="22" depart="437" departLane="free" departSpeed="random" />
    <vehicle id="108" type="Berliner" route="5" depart="446" departLane="free" departSpeed="random" />
    <vehicle id="109" type="Berliner" route="17" depart="446" departLane="free" departSpeed="random" />
    <vehicle id="110" type="Berliner" route="4" depart="448" departLane="free" departSpeed="random" />
    <vehicle id="111" type="Berliner" route="9" depart="450" departLane="free" departSpeed="random" />
    <vehicle id="112" type="Berliner" route="5" depart="452" departLane="free" departSpeed="random" />
    <vehicle id="113" type="Berliner" route="5" depart="460" departLane="free" departSpeed="random" />
    <vehicle id="114" type="Berliner" route="8" depart="462" departLane="free" departSpeed="random" />
    <vehicle id="115" type="Berliner" route="10" depart="463" departLane="free" departSpeed="random" />
    <vehicle id="116" type="Berliner" route="11" depart="470" departLane="free" departSpeed="random" />
    <vehicle id="117" type="Berliner" route="2" depart="471" departLane="free" departSpeed="random" />
    <vehicle id="118" type="Berliner" route="11" depart="480" departLane="free" departSpeed="random" />
    <vehicle id="119" type="Berliner" route="22" depart="482" departLane="free" departSpeed="random" />
    <vehicle id="120" type="Berliner" route="5" depart="484" departLane="free" departSpeed="random" />
    <vehicle id="121" type="Berliner" route="8" depart="487" departLane="free" departSpeed="random" />
    <vehicle id="122" type="Berliner" route="7" depart="491" departLane="free" departSpeed="random" />
    <vehicle id="123" type="Berliner" route="8" depart="497" departLane="free" departSpeed="random" />
    <vehicle id="124" type="Berliner" route="10" depart="499" departLane="free" departSpeed="random" />
    <vehicle id="125" type="Berliner" route="17" depart="501" departLane="free" departSpeed="random" />
    <vehicle id="126" type="Berliner" route="8" depart="502" departLane="free" departSpeed="random" />
    <vehicle id="127" type="Berliner" route="8" depart="513" departLane="free" departSpeed="random" />
    <vehicle id="128" type="Berliner" route="27" depart="516" departLane="free" departSpeed="random" />
    <vehicle id="129" type="Berliner" route="17" depart="518" departLane="free" departSpeed="random" />
    <vehicle id="130" type="Berliner" route="5" depart="519" departLane="free" departSpeed="random" />
    <vehicle id="131" type="Berliner" route="5" depart="524" departLane="free" departSpeed="random" />
    <vehicle id="132" type="Berliner" route="22" depart="529" departLane="free" departSpeed="random" />
    <vehicle id="133" type="Berliner" route="3" depart="530" departLane="free" departSpeed="random" />
    <vehicle id="134" type="Berliner" route="5" depart="539" departLane="free" departSpeed="random" />
    <vehicle id="135" type="Berliner" route="30" depart="542" departLane="free" departSpeed="random" />
    <vehicle id="136" type="Berliner" route="8" depart="553" departLane="free" departSpeed="random" />
    <vehicle id="137" type="Berliner" route="9" depart="562" departLane="free" departSpeed="random" />
    <vehicle id="138" type="Berliner" route="2" depart="567" departLane="free" departSpeed="random" />
    <vehicle id="139" type="Berliner" route="17" depart="569" departLane="free" departSpeed="random" />
    <vehicle id="140" type="Berliner" route="2" depart="574" departLane="free" departSpeed="random" />
    <vehicle id="141" type="Berliner" route="8" depart="574" departLane="free" departSpeed="random" />
    <vehicle id="142" type="Berliner" route="2" depart="577" departLane="free" departSpeed="random" />
    <vehicle id="143" type="Berliner" route="27" depart="577" departLane="free" departSpeed="random" />
    <vehicle id="144" type="Berliner" route="5" depart="582" departLane="free" departSpeed="random" />
    <vehicle id="145" type="Berliner" route="8" depart="588" departLane="free" departSpeed="random" />
    <vehicle id="146" type="Berliner" route="4" depart="590" departLane="free" departSpeed="random" />
    <vehicle id="147" type="Berliner" route="27" depart="591" departLane="free" departSpeed="random" />
    <vehicle id="148" type="Berliner" route="17" depart="594" departLane="free" departSpeed="random" />
    <vehicle id="149" type="Berliner" route="7" depart="595" departLane="free" departSpeed="random" />
    <vehicle id="150" type="Berliner" route="11" depart="598" departLane="free" departSpeed="random" />
    <vehicle id="151" type="Berliner" route="9" depart="601" departLane="free" departSpeed="random" />
    <vehicle id="152" type="Berliner" route="5" depart="605" departLane="free" departSpeed="random" />
    <vehicle id="153" type="Berliner" route="8" depart="605" departLane="free" departSpeed="random" />
    <vehicle id="154" type="Berliner" route="8" depart="610" departLane="free" departSpeed="random" />
    <vehicle id="155" type="Berliner" route="22" depart="611" departLane="free" departSpeed="random" />
    <vehicle id="156" type="Berliner" route="8" depart="613" departLane="free" departSpeed="random" />
    <vehicle id="157" type="Berliner" route="5" depart="619" departLane="free" departSpeed="random" />
    <vehicle id="158" type="Berliner" route="27" depart="628" departLane="free" departSpeed="random" />
    <vehicle id="159" type="Berliner" route="27" depart="630" departLane="free" departSpeed="random" />
    <vehicle id="160" type="Berliner" route="16" depart="631" departLane="free" departSpeed="random" />
    <vehicle id="161" type="Berliner" route="11" depart="636" departLane="free" departSpeed="random" />
    <vehicle id="162" type="Berliner" route="27" depart="643" departLane="free" departSpeed="random" />
    <vehicle id="163" type="Berliner" route="5" depart="645" departLane="free" departSpeed="random" />
    <vehicle id="164" type="Berliner" route="17" depart="650" departLane="free" departSpeed="random" />
    <vehicle id="165" type="Berliner" route="22" depart="651" departLane="free" departSpeed="random" />
    <vehicle id="166" type="Berliner" route="9" depart="657" departLane="free" departSpeed="random" />
    <vehicle id="167" type="Berliner" route="8" depart="659" departLane="free" departSpeed="random" />
    <vehicle id="168" type="Berliner" route="5" depart="664" departLane="free" departSpeed="random" />
    <vehicle id="169" type="Berliner" route="9" depart="667" departLane="free" departSpeed="random" />
    <vehicle id="170" type="Berliner" route="8" depart="671" departLane="free" departSpeed="random" />
    <vehicle id="171" type="Berliner" route="5" depart="672" departLane="free" departSpeed="random" />
    <vehicle id="172" type="Berliner" route="22" depart="676" departLane="free" departSpeed="random" />
    <vehicle id="173" type="Berliner" route="11" depart="678" departLane="free" departSpeed="random" />
    <vehicle id="174" type="Berliner" route="5" depart="682" departLane="free" departSpeed="random" />
    <vehicle id="175" type="Berliner" route="5" depart="685" departLane="free" departSpeed="random" />
    <vehicle id="176" type="Berliner" route="5" depart="693" departLane="free" departSpeed="random" />
    <vehicle id="177" type="Berliner" route="9" depart="693" departLane="free" departSpeed="random" />
    <vehicle id="178" type="Berliner" route="7" depart="713" departLane="free" departSpeed="random" />
    <vehicle id="179" type="Berliner" route="27" depart="717" departLane="free" departSpeed="random" />
    <vehicle id="180" type="Berliner" route="17" depart="721" departLane="free" departSpeed="random" />
    <vehicle id="181" type="Berliner" route="8" depart="723" departLane="free" departSpeed="random" />
    <vehicle id="182" type="Berliner" route="5" depart="724" departLane="free" departSpeed="random" />
    <vehicle id="183" type="Berliner" route="5" depart="728" departLane="free" departSpeed="random" />
    <vehicle id="184" type="Berliner" route="5" depart="729" departLane="free" departSpeed="random" />
    <vehicle id="185" type="Berliner" route="5" depart="735" departLane="free" departSpeed="random" />
    <vehicle id="186" type="Berliner" route="11" depart="738" departLane="free" departSpeed="random" />
    <vehicle id="187" type="Berliner" route="27" depart="738" departLane="free" departSpeed="random" />
    <vehicle id="188" type="Berliner" route="27" depart="741" departLane="free" departSpeed="random" />
    <vehicle id="189" type="Berliner" route="8" depart="749" departLane="free" departSpeed="random" />
    <vehicle id="190" type="Berliner" route="8" depart="751" departLane="free" departSpeed="random" />
    <vehicle id="191" type="Berliner" route="5" depart="765" departLane="free" departSpeed="random" />
    <vehicle id="192" type="Berliner" route="27" depart="766" departLane="free" departSpeed="random" />
    <vehicle id="193" type="Berliner" route="5" depart="779" departLane="free" departSpeed="random" />
    <vehicle id="194" type="Berliner" route="17" depart="786" departLane="free" departSpeed="random" />
    <vehicle id="195" type="Berliner" route="8" depart="790" departLane="free" departSpeed="random" />
    <vehicle id="196" type="Berliner" route="17" depart="790" departLane="free" departSpeed="random" />
    <vehicle id="197" type="Berliner" route="2" depart="796" departLane="free" departSpeed="random" />
    <vehicle id="198" type="Berliner" route="11" depart="807" departLane="free" departSpeed="random" />
    <vehicle id="199" type="Berliner" route="5" depart="808" departLane="free" departSpeed="random" />
    <vehicle id="200" type="Berliner" route="10" depart="809" departLane="free" departSpeed="random" />
    <vehicle id="201" type="Berliner" route="8" depart="813" departLane="free" departSpeed="random" />
    <vehicle id="202" type="Berliner" route="17" depart="814" departLane="free" departSpeed="random" />
    <vehicle id="203" type="Berliner" route="5" depart="820" departLane="free" departSpeed="random" />
    <vehicle id="204" type="Berliner" route="8" depart="822" departLane="free" departSpeed="random" />
    <vehicle id="205" type="Berliner" route="11" depart="823" departLane="free" departSpeed="random" />
    <vehicle id="206" type="Berliner" route="10" depart="826" departLane="free" departSpeed="random" />
    <vehicle id="207" type="Berliner" route="17" depart="826" departLane="free" departSpeed="random" />
    <vehicle id="208" type="Berliner" route="5" depart="832" departLane="free" departSpeed="random" />
    <vehicle id="209" type="Berliner" route="8" depart="833" departLane="free" departSpeed="random" />
    <vehicle id="210" type="Berliner" route="8" depart="839" departLane="free" departSpeed="random" />
    <vehicle id="211" type="Berliner" route="5" depart="840" departLane="free" departSpeed="random" />
    <vehicle id="212" type="Berliner" route="11" depart="841" departLane="free" departSpeed="random" />
    <vehicle id="213" type="Berliner" route="8" depart="848" departLane="free" departSpeed="random" />
    <vehicle id="214" type="Berliner" route="10" depart="855" departLane="free" departSpeed="random" />
    <vehicle id="215" type="Berliner" route="5" depart="856" departLane="free" departSpeed="random" />
    <vehicle id="216" type="Berliner" route="4" depart="861" departLane="free" departSpeed="random" />
    <vehicle id="217" type="Berliner" route="10" depart="861" departLane="free" departSpeed="random" />
    <vehicle id="218" type="Berliner" route="5" depart="864" departLane="free" departSpeed="random" />
    <vehicle id="219" type="Berliner" route="8" depart="866" departLane="free" departSpeed="random" />
    <vehicle id="220" type="Berliner" route="5" depart="869" departLane="free" departSpeed="random" />
    <vehicle id="221" type="Berliner" route="22" depart="871" departLane="free" departSpeed="random" />
    <vehicle id="222" type="Berliner" route="11" depart="873" departLane="free" departSpeed="random" />
    <vehicle id="223" type="Berliner" route="3" depart="879" departLane="free" departSpeed="random" />
    <vehicle id="224" type="Berliner" route="5" depart="879" departLane="free" departSpeed="random" />
    <vehicle id="225" type="Berliner" route="8" depart="880" departLane="free" departSpeed="random" />
    <vehicle id="226" type="Berliner" route="2" depart="883" departLane="free" departSpeed="random" />
    <vehicle id="227" type="Berliner" route="8" depart="887" departLane="free" departSpeed="random" />
    <vehicle id="228" type="Berliner" route="9" depart="893" departLane="free" departSpeed="random" />
    <vehicle id="229" type="Berliner" route="8" depart="901" departLane="free" departSpeed="random" />
    <vehicle id="230" type="Berliner" route="22" depart="901" departLane="free" departSpeed="random" />
    <vehicle id="231" type="Berliner" route="8" depart="908" departLane="free" departSpeed="random" />
    <vehicle id="232" type="Berliner" route="20" depart="908" departLane="free" departSpeed="random" />
    <vehicle id="233" type="Berliner" route="8" depart="914" departLane="free" departSpeed="random" />
    <vehicle id="234" type="Berliner" route="5" depart="919" departLane="free" departSpeed="random" />
    <vehicle id="235" type="Berliner" route="17" depart="919" departLane="free" departSpeed="random" />
    <vehicle id="236" type="Berliner" route="4" depart="924" departLane="free" departSpeed="random" />
    <vehicle id="237" type="Berliner" route="8" depart="926" departLane="free" departSpeed="random" />
    <vehicle id="238" type="Berliner" route="5" depart="927" departLane="free" departSpeed="random" />
    <vehicle id="239" type="Berliner" route="25" depart="936" departLane="free" departSpeed="random" />
    <vehicle id="240" type="Berliner" route="7" depart="940" departLane="free" departSpeed="random" />
    <vehicle id="241" type="Berliner" route="27" depart="943" departLane="free" departSpeed="random" />
    <vehicle id="242" type="Berliner" route="22" depart="948" departLane="free" departSpeed="random" />
    <vehicle id="243" type="Berliner" route="5" depart="951" departLane="free" departSpeed="random" />
    <vehicle id="244" type="Berliner" route="10" depart="958" departLane="free" departSpeed="random" />
    <vehicle id="245" type="Berliner" route="4" depart="959" departLane="free" departSpeed="random" />
    <vehicle id="246" type="Berliner" route="8" depart="959" departLane="free" departSpeed="random" />
    <vehicle id="247" type="Berliner" route="5" depart="973" departLane="free" departSpeed="random" />
    <vehicle id="248" type="Berliner" route="22" depart="977" departLane="free" departSpeed="random" />
    <vehicle id="249" type="Berliner" route="8" depart="980" departLane="free" departSpeed="random" />
    <vehicle id="250" type="Berliner" route="9" depart="981" departLane="free" departSpeed="random" />
    <vehicle id="251" type="Berliner" route="5" depart="984" departLane="free" departSpeed="random" />
    <vehicle id="252" type="Berliner" route="8" depart="1004" departLane="free" departSpeed="random" />
    <vehicle id="253" type="Berliner" route="6" depart="1012" departLane="free" departSpeed="random" />
    <vehicle id="254" type="Berliner" route="2" depart="1013" departLane="free" departSpeed="random" />
    <vehicle id="255" type="Berliner" route="8" depart="1014" departLane="free" departSpeed="random" />
    <vehicle id="256" type="Berliner" route="8" depart="1018" departLane="free" departSpeed="random" />
    <vehicle id="257" type="Berliner" route="4" depart="1019" departLane="free" departSpeed="random" />
    <vehicle id="258" type="Berliner" route="8" depart="1019" departLane="free" departSpeed="random" />
    <vehicle id="259" type="Berliner" route="1" depart="1021" departLane="free" departSpeed="random" />
    <vehicle id="260" type="Berliner" route="3" depart="1021" departLane="free" departSpeed="random" />
    <vehicle id="261" type="Berliner" route="8" depart="1025" departLane="free" departSpeed="random" />
    <vehicle id="262" type="Berliner" route="5" depart="1027" departLane="free" departSpeed="random" />
    <vehicle id="263" type="Berliner" route="3" depart="1034" departLane="free" departSpeed="random" />
    <vehicle id="264" type="Berliner" route="5" depart="1041" departLane="free" departSpeed="random" />
    <vehicle id="265" type="Berliner" route="8" depart="1041" departLane="free" departSpeed="random" />
    <vehicle id="266" type="Berliner" route="5" depart="1047" departLane="free" departSpeed="random" />