<routes>

            <vType id="Berliner" accel="0.5" decel="1.0" sigma="0.5" length="0.5" maxSpeed="1.5" minGap="1.0" color="255,165,0" guiShape="pedestrian"  width ="0.5" vClass="pedestrian"/>  

            <route id="a" edges="a_3 3_6"/>
            <route id="c" edges="6_3 3_a"/>
            <route id="e" edges="c_3 3_d"/>
            <route id="g" edges="d_3 3_c"/>
            <route id="i" edges="3_6 6_b"/>
            <route id="k" edges="b_6 6_3"/>
            <route id="m" edges="e_6 6_f"/>
            <route id="o" edges="f_6 6_e"/>
                        
        
    <person id="0" depart="2" departPos="random">
        <walk route="e"/>
    </person>
    <person id="1" depart="2" departPos="random">
        <walk route="i"/>
    </person>
    <person id="2" depart="4" departPos="random">
        <walk route="i"/>
    </person>
    <person id="3" depart="5" departPos="random">
        <walk route="a"/>
    </person>
    <person id="4" depart="6" departPos="random">
        <walk route="a"/>
    </person>
    <person id="5" depart="8" departPos="random">
        <walk route="k"/>
    </person>
    <person id="6" depart="9" departPos="random">
        <walk route="e"/>
    </person>
    <person id="7" depart="10" departPos="random">
        <walk route="c"/>
    </person>
    <person id="8" depart="11" departPos="random">
        <walk route="e"/>
    </person>
    <person id="9" depart="13" departPos="random">
        <walk route="a"/>
    </person>
    <person id="10" depart="14" departPos="random">
        <walk route="a"/>
    </person>
    <person id="11" depart="17" departPos="random">
        <walk route="a"/>
    </person>
    <person id="12" depart="18" departPos="random">
        <walk route="i"/>
    </person>
    <person id="13" depart="20" departPos="random">
        <walk route="g"/>
    </person>
    <person id="14" depart="20" departPos="random">
        <walk route="k"/>
    </person>
    <person id="15" depart="25" departPos="random">
        <walk route="k"/>
    </person>
    <person id="16" depart="28" departPos="random">
        <walk route="c"/>
    </person>
    <person id="17" depart="30" departPos="random">
        <walk route="i"/>
    </person>
    <person id="18" depart="34" departPos="random">
        <walk route="i"/>
    </person>
    <person id="19" depart="39" departPos="random">
        <walk route="a"/>
    </person>
    <person id="20" depart="39" departPos="random">
        <walk route="c"/>
    </person>
    <person id="21" depart="39" departPos="random">
        <walk route="e"/>
    </person>
    <person id="22" depart="47" departPos="random">
        <walk route="c"/>
    </person>
    <person id="23" depart="48" departPos="random">
        <walk route="c"/>
    </person>
    <person id="24" depart="52" departPos="random">
        <walk route="a"/>
    </person>
    <person id="25" depart="63" departPos="random">
        <walk route="e"/>
    </person>
    <person id="26" depart="68" departPos="random">
        <walk route="i"/>
    </person>
    <person id="27" depart="71" departPos="random">
        <walk route="a"/>
    </person>
    <person id="28" depart="71" departPos="random">
        <walk route="i"/>
    </person>
    <person id="29" depart="75" departPos="random">
        <walk route="c"/>
    </person>
    <person id="30" depart="75" departPos="random">
        <walk route="k"/>
    </person>
    <person id="31" depart="77" departPos="random">
        <walk route="c"/>
    </person>
    <person id="32" depart="77" departPos="random">
        <walk route="k"/>
    </person>
    <person id="33" depart="79" departPos="random">
        <walk route="a"/>
    </person>
    <person id="34" depart="82" departPos="random">
        <walk route="g"/>
    </person>
    <person id="35" depart="84" departPos="random">
        <walk route="i"/>
    </person>
    <person id="36" depart="85" departPos="random">
        <walk route="c"/>
    </person>
    <person id="37" depart="88" departPos="random">
        <walk route="i"/>
    </person>
    <person id="38" depart="89" departPos="random">
        <walk route="m"/>
    </person>
    <person id="39" depart="89" departPos="random">
        <walk route="o"/>
    </person>
    <person id="40" depart="90" departPos="random">
        <walk route="k"/>
    </person>
    <person id="41" depart="91" departPos="random">
        <walk route="a"/>
    </person>
    <person id="42" depart="91" departPos="random">
        <walk route="e"/>
    </person>
    <person id="43" depart="93" departPos="random">
        <walk route="e"/>
    </person>
    <person id="44" depart="94" departPos="random">
        <walk route="c"/>
    </person>
    <person id="45" depart="95" departPos="random">
        <walk route="a"/>
    </person>
    <person id="46" depart="97" departPos="random">
        <walk route="a"/>
    </person>
    <person id="47" depart="97" departPos="random">
        <walk route="i"/>
    </person>
    <person id="48" depart="102" departPos="random">
        <walk route="i"/>
    </person>
    <person id="49" depart="109" departPos="random">
        <walk route="g"/>
    </person>
    <person id="50" depart="111" departPos="random">
        <walk route="g"/>
    </person>
    <person id="51" depart="112" departPos="random">
        <walk route="i"/>
    </person>
    <person id="52" depart="113" departPos="random">
        <walk route="c"/>
    </person>
    <person id="53" depart="115" departPos="random">
        <walk route="k"/>
    </person>
    <person id="54" depart="125" departPos="random">
        <walk route="a"/>
    </person>
    <person id="55" depart="129" departPos="random">
        <walk route="i"/>
    </person>
    <person id="56" depart="132" departPos="random">
        <walk route="m"/>
    </person>
    <person id="57" depart="134" departPos="random">
        <walk route="m"/>
    </person>
    <person id="58" depart="135" departPos="random">
        <walk route="e"/>
    </person>
    <person id="59" depart="136" departPos="random">
        <walk route="c"/>
    </person>
    <person id="60" depart="141" departPos="random">
        <walk route="c"/>
    </person>
    <person id="61" depart="143" departPos="random">
        <walk route="i"/>
    </person>
    <person id="62" depart="145" departPos="random">
        <walk route="i"/>
    </person>
    <person id="63" depart="153" departPos="random">
        <walk route="a"/>
    </person>
    <person id="64" depart="159" departPos="random">
        <walk route="o"/>
    </person>
    <person id="65" depart="160" departPos="random">
        <walk route="o"/>
    </person>
    <person id="66" depart="164" departPos="random">
        <walk route="a"/>
    </person>
    <person id="67" depart="165" departPos="random">
        <walk route="a"/>
    </person>
    <person id="68" depart="165" departPos="random">
        <walk route="c"/>
    </person>
    <person id="69" depart="166" departPos="random">
        <walk route="e"/>
    </person>
    <person id="70" depart="172" departPos="random">
        <walk route="a"/>
    </person>
    <person id="71" depart="173" departPos="random">
        <walk route="c"/>
    </person>
    <person id="72" depart="174" departPos="random">
        <walk route="a"/>
    </person>
    <person id="73" depart="175" departPos="random">
        <walk route="c"/>
    </person>
    <person id="74" depart="176" departPos="random">
        <walk route="a"/>
    </person>
    <person id="75" depart="176" departPos="random">
        <walk route="c"/>
    </person>
    <person id="76" depart="179" departPos="random">
        <walk route="e"/>
    </person>
    <person id="77" depart="182" departPos="random">
        <walk route="i"/>
    </person>
    <person id="78" depart="182" departPos="random">
        <walk route="k"/>
    </person>
    <person id="79" depart="184" departPos="random">
        <walk route="c"/>
    </person>
    <person id="80" depart="184" departPos="random">
        <walk route="k"/>
    </person>
    <person id="81" depart="185" departPos="random">
        <walk route="c"/>
    </person>
    <person id="82" depart="186" departPos="random">
        <walk route="k"/>
    </person>
    <person id="83" depart="186" departPos="random">
        <walk route="m"/>
    </person>
    <person id="84" depart="187" departPos="random">
        <walk route="i"/>
    </person>
    <person id="85" depart="191" departPos="random">
        <walk route="e"/>
    </person>
    <person id="86" depart="195" departPos="random">
        <walk route="c"/>
    </person>
    <person id="87" depart="198" departPos="random">
        <walk route="c"/>
    </person>
    <person id="88" depart="198" departPos="random">
        <walk route="e"/>
    </person>
    <person id="89" depart="200" departPos="random">
        <walk route="g"/>
    </person>
    <person id="90" depart="203" departPos="random">
        <walk route="c"/>
    </person>
    <person id="91" depart="203" departPos="random">
        <walk route="i"/>
    </person>
    <person id="92" depart="206" departPos="random">
        <walk route="g"/>
    </person>
    <person id="93" depart="209" departPos="random">
        <walk route="c"/>
    </person>
    <person id="94" depart="209" departPos="random">
        <walk route="i"/>
    </person>
    <person id="95" depart="212" departPos="random">
        <walk route="e"/>
    </person>
    <person id="96" depart="213" departPos="random">
        <walk route="a"/>
    </person>
    <person id="97" depart="216" departPos="random">
        <walk route="a"/>
    </person>
    <person id="98" depart="216" departPos="random">
        <walk route="k"/>
    </person>
    <person id="99" depart="218" departPos="random">
        <walk route="i"/>
    </person>
    <person id="100" depart="220" departPos="random">
        <walk route="a"/>
    </person>
    <person id="101" depart="222" departPos="random">
        <walk route="e"/>
    </person>
    <person id="102" depart="223" departPos="random">
        <walk route="c"/>
    </person>
    <person id="103" depart="224" departPos="random">
        <walk route="c"/>
    </person>
    <person id="104" depart="224" departPos="random">
        <walk route="i"/>
    </person>
    <person id="105" depart="225" departPos="random">
        <walk route="c"/>
    </person>
    <person id="106" depart="226" departPos="random">
        <walk route="a"/>
    </person>
    <person id="107" depart="228" departPos="random">
        <walk route="a"/>
    </person>
    <person id="108" depart="228" departPos="random">
        <walk route="c"/>
    </person>
    <person id="109" depart="231" departPos="random">
        <walk route="o"/>
    </person>
    <person id="110" depart="233" departPos="random">
        <walk route="m"/>
    </person>
    <person id="111" depart="235" departPos="random">
        <walk route="c"/>
    </person>
    <person id="112" depart="236" departPos="random">
        <walk route="a"/>
    </person>
    <person id="113" depart="237" departPos="random">
        <walk route="i"/>
    </person>
    <person id="114" depart="239" departPos="random">
        <walk route="i"/>
    </person>
    <person id="115" depart="239" departPos="random">
        <walk route="k"/>
    </person>
    <person id="116" depart="240" departPos="random">
        <walk route="k"/>
    </person>
    <person id="117" depart="240" departPos="random">
        <walk route="m"/>
    </person>
    <person id="118" depart="241" departPos="random">
        <walk route="k"/>
    </person>
    <person id="119" depart="242" departPos="random">
        <walk route="a"/>
    </person>
    <person id="120" depart="242" departPos="random">
        <walk route="i"/>
    </person>
    <person id="121" depart="243" departPos="random">
        <walk route="c"/>
    </person>
    <person id="122" depart="244" departPos="random">
        <walk route="i"/>
    </person>
    <person id="123" depart="244" departPos="random">
        <walk route="k"/>
    </person>
    <person id="124" depart="245" departPos="random">
        <walk route="a"/>
    </person>
    <person id="125" depart="245" departPos="random">
        <walk route="o"/>
    </person>
    <person id="126" depart="248" departPos="random">
        <walk route="k"/>
    </person>
    <person id="127" depart="249" departPos="random">
        <walk route="k"/>
    </person>
    <person id="128" depart="249" departPos="random">
        <walk route="m"/>
    </person>
    <person id="129" depart="250" departPos="random">
        <walk route="i"/>
    </person>
    <person id="130" depart="252" departPos="random">
        <walk route="i"/>
    </person>
    <person id="131" depart="253" departPos="random">
        <walk route="e"/>
    </person>
    <person id="132" depart="253" departPos="random">
        <walk route="k"/>
    </person>
    <person id="133" depart="254" departPos="random">
        <walk route="k"/>
    </person>
    <person id="134" depart="258" departPos="random">
        <walk route="c"/>
    </person>
    <person id="135" depart="258" departPos="random">
        <walk route="m"/>
    </person>
    <person id="136" depart="259" departPos="random">
        <walk route="i"/>
    </person>
    <person id="137" depart="261" departPos="random">
        <walk route="c"/>
    </person>
    <person id="138" depart="261" departPos="random">
        <walk route="o"/>
    </person>
    <person id="139" depart="264" departPos="random">
        <walk route="g"/>
    </person>
    <person id="140" depart="265" departPos="random">
        <walk route="k"/>
    </person>
    <person id="141" depart="268" departPos="random">
        <walk route="c"/>
    </person>
    <person id="142" depart="273" departPos="random">
        <walk route="a"/>
    </person>
    <person id="143" depart="282" departPos="random">
        <walk route="c"/>
    </person>
    <person id="144" depart="287" departPos="random">
        <walk route="a"/>
    </person>
    <person id="145" depart="289" departPos="random">
        <walk route="k"/>
    </person>
    <person id="146" depart="290" departPos="random">
        <walk route="c"/>
    </person>
    <person id="147" depart="293" departPos="random">
        <walk route="a"/>
    </person>
    <person id="148" depart="298" departPos="random">
        <walk route="k"/>
    </person>
    <person id="149" depart="300" departPos="random">
        <walk route="k"/>
    </person>
    <person id="150" depart="305" departPos="random">
        <walk route="c"/>
    </person>
    <person id="151" depart="306" departPos="random">
        <walk route="k"/>
    </person>
    <person id="152" depart="307" departPos="random">
        <walk route="g"/>
    </person>
    <person id="153" depart="307" departPos="random">
        <walk route="i"/>
    </person>
    <person id="154" depart="308" departPos="random">
        <walk route="k"/>
    </person>
    <person id="155" depart="313" departPos="random">
        <walk route="a"/>
    </person>
    <person id="156" depart="316" departPos="random">
        <walk route="c"/>
    </person>
    <person id="157" depart="319" departPos="random">
        <walk route="a"/>
    </person>
    <person id="158" depart="320" departPos="random">
        <walk route="i"/>
    </person>
    <person id="159" depart="322" departPos="random">
        <walk route="a"/>
    </person>
    <person id="160" depart="324" departPos="random">
        <walk route="c"/>
    </person>
    <person id="161" depart="325" departPos="random">
        <walk route="m"/>
    </person>
    <person id="162" depart="330" departPos="random">
        <walk route="a"/>
    </person>
    <person id="163" depart="331" departPos="random">
        <walk route="g"/>
    </person>
    <person id="164" depart="332" departPos="random">
        <walk route="c"/>
    </person>
    <person id="165" depart="336" departPos="random">
        <walk route="k"/>
    </person>
    <person id="166" depart="337" departPos="random">
        <walk route="a"/>
    </person>
    <person id="167" depart="337" departPos="random">
        <walk route="c"/>
    </person>
    <person id="168" depart="338" departPos="random">
        <walk route="e"/>
    </person>
    <person id="169" depart="339" departPos="random">
        <walk route="c"/>
    </person>
    <person id="170" depart="340" departPos="random">
        <walk route="m"/>
    </person>
    <person id="171" depart="341" departPos="random">
        <walk route="k"/>
    </person>
    <person id="172" depart="342" departPos="random">
        <walk route="k"/>
    </person>
    <person id="173" depart="343" departPos="random">
        <walk route="k"/>
    </person>
    <person id="174" depart="344" departPos="random">
        <walk route="e"/>
    </person>
    <person id="175" depart="344" departPos="random">
        <walk route="m"/>
    </person>
    <person id="176" depart="347" departPos="random">
        <walk route="c"/>
    </person>
    <person id="177" depart="351" departPos="random">
        <walk route="i"/>
    </person>
    <person id="178" depart="358" departPos="random">
        <walk route="c"/>
    </person>
    <person id="179" depart="358" departPos="random">
        <walk route="k"/>
    </person>
    <person id="180" depart="359" departPos="random">
        <walk route="i"/>
    </person>
    <person id="181" depart="360" departPos="random">
        <walk route="m"/>
    </person>
    <person id="182" depart="369" departPos="random">
        <walk route="a"/>
    </person>
    <person id="183" depart="370" departPos="random">
        <walk route="c"/>
    </person>
    <person id="184" depart="371" departPos="random">
        <walk route="k"/>
    </person>
    <person id="185" depart="372" departPos="random">
        <walk route="k"/>
    </person>
    <person id="186" depart="374" departPos="random">
        <walk route="o"/>
    </person>
    <person id="187" depart="378" departPos="random">
        <walk route="a"/>
    </person>
    <person id="188" depart="380" departPos="random">
        <walk route="m"/>
    </person>
    <person id="189" depart="381" departPos="random">
        <walk route="a"/>
    </person>
    <person id="190" depart="381" departPos="random">
        <walk route="i"/>
    </person>
    <person id="191" depart="383" departPos="random">
        <walk route="a"/>
    </person>
    <person id="192" depart="383" departPos="random">
        <walk route="g"/>
    </person>
    <person id="193" depart="385" departPos="random">
        <walk route="a"/>
    </person>
    <person id="194" depart="385" departPos="random">
        <walk route="o"/>
    </person>
    <person id="195" depart="386" departPos="random">
        <walk route="k"/>
    </person>
    <person id="196" depart="387" departPos="random">
        <walk route="a"/>
    </person>
    <person id="197" depart="387" departPos="random">
        <walk route="c"/>
    </person>
    <person id="198" depart="389" departPos="random">
        <walk route="a"/>
    </person>
    <person id="199" depart="391" departPos="random">
        <walk route="i"/>
    </person>
    <person id="200" depart="393" departPos="random">
        <walk route="a"/>
    </person>
    <person id="201" depart="395" departPos="random">
        <walk route="o"/>
    </person>
    <person id="202" depart="399" departPos="random">
        <walk route="k"/>
    </person>
    <person id="203" depart="401" departPos="random">
        <walk route="e"/>
    </person>
    <person id="204" depart="401" departPos="random">
        <walk route="o"/>
    </person>
    <person id="205" depart="402" departPos="random">
        <walk route="c"/>
    </person>
    <person id="206" depart="404" departPos="random">
        <walk route="k"/>
    </person>
    <person id="207" depart="406" departPos="random">
        <walk route="k"/>
    </person>
    <person id="208" depart="406" departPos="random">
        <walk route="m"/>
    </person>
    <person id="209" depart="409" departPos="random">
        <walk route="k"/>
    </person>
    <person id="210" depart="413" departPos="random">
        <walk route="c"/>
    </person>
    <person id="211" depart="414" departPos="random">
        <walk route="g"/>
    </person>
    <person id="212" depart="416" departPos="random">
        <walk route="k"/>
    </person>
    <person id="213" depart="420" departPos="random">
        <walk route="c"/>
    </person>
    <person id="214" depart="426" departPos="random">
        <walk route="g"/>
    </person>
    <person id="215" depart="427" departPos="random">
        <walk route="o"/>
    </person>
    <person id="216" depart="428" departPos="random">
        <walk route="k"/>
    </person>
    <person id="217" depart="429" departPos="random">
        <walk route="k"/>
    </person>
    <person id="218" depart="430" departPos="random">
        <walk route="c"/>
    </person>
    <person id="219" depart="431" departPos="random">
        <walk route="a"/>
    </person>
    <person id="220" depart="431" departPos="random">
        <walk route="i"/>
    </person>
    <person id="221" depart="431" departPos="random">
        <walk route="m"/>
    </person>
    <person id="222" depart="437" departPos="random">
        <walk route="i"/>
    </person>
    <person id="223" depart="438" departPos="random">
        <walk route="k"/>
    </person>
    <person id="224" depart="439" departPos="random">
        <walk route="i"/>
    </person>
    <person id="225" depart="440" departPos="random">
        <walk route="k"/>
    </person>
    <person id="226" depart="443" departPos="random">
        <walk route="g"/>
    </person>
    <person id="227" depart="445" departPos="random">
        <walk route="c"/>
    </person>
    <person id="228" depart="445" departPos="random">
        <walk route="i"/>
    </person>
    <person id="229" depart="446" departPos="random">
        <walk route="k"/>
    </person>
    <person id="230" depart="447" departPos="random">
        <walk route="a"/>
    </person>
    <person id="231" depart="454" departPos="random">
        <walk route="c"/>
    </person>
    <person id="232" depart="457" departPos="random">
        <walk route="a"/>
    </person>
    <person id="233" depart="458" departPos="random">
        <walk route="a"/>
    </person>
    <person id="234" depart="460" departPos="random">
        <walk route="m"/>
    </person>
    <person id="235" depart="462" departPos="random">
        <walk route="i"/>
    </person>
    <person id="236" depart="467" departPos="random">
        <walk route="k"/>
    </person>
    <person id="237" depart="468" departPos="random">
        <walk route="m"/>
    </person>
    <person id="238" depart="470" departPos="random">
        <walk route="e"/>
    </person>
    <person id="239" depart="474" departPos="random">
        <walk route="k"/>
    </person>
    <person id="240" depart="475" departPos="random">
        <walk route="k"/>
    </person>
    <person id="241" depart="477" departPos="random">
        <walk route="a"/>
    </person>
    <person id="242" depart="480" departPos="random">
        <walk route="o"/>
    </person>
    <person id="243" depart="482" departPos="random">
        <walk route="a"/>
    </person>
    <person id="244" depart="482" departPos="random">
        <walk route="i"/>
    </person>
    <person id="245" depart="483" departPos="random">
        <walk route="i"/>
    </person>
    <person id="246" depart="484" departPos="random">
        <walk route="i"/>
    </person>
    <person id="247" depart="485" departPos="random">
        <walk route="c"/>
    </person>
    <person id="248" depart="486" departPos="random">
        <walk route="k"/>
    </person>
    <person id="249" depart="489" departPos="random">
        <walk route="i"/>
    </person>
    <person id="250" depart="490" departPos="random">
        <walk route="e"/>
    </person>
    <person id="251" depart="494" departPos="random">
        <walk route="k"/>
    </person>
    <person id="252" depart="495" departPos="random">
        <walk route="c"/>
    </person>
    <person id="253" depart="496" departPos="random">
        <walk route="i"/>
    </person>
    <person id="254" depart="496" departPos="random">
        <walk route="o"/>
    </person>
    <person id="255" depart="500" departPos="random">
        <walk route="a"/>
    </person>
    <person id="256" depart="500" departPos="random">
        <walk route="k"/>
    </person>
    <person id="257" depart="513" departPos="random">
        <walk route="k"/>
    </person>
    <person id="258" depart="518" departPos="random">
        <walk route="a"/>
    </person>
    <person id="259" depart="524" departPos="random">
        <walk route="k"/>
    </person>
    <person id="260" depart="527" departPos="random">
        <walk route="c"/>
    </person>
    <person id="261" depart="528" departPos="random">
        <walk route="i"/>
    </person>
    <person id="262" depart="529" departPos="random">
        <walk route="c"/>
    </person>
    <person id="263" depart="529" departPos="random">
        <walk route="g"/>
    </person>
    <person id="264" depart="532" departPos="random">
        <walk route="a"/>
    </person>
    <person id="265" depart="534" departPos="random">
        <walk route="k"/>
    </person>
    <person id="266" depart="537" departPos="random">
        <walk route="a"/>
    </person>
    <person id="267" depart="539" departPos="random">
        <walk route="c"/>
    </person>
    <person id="268" depart="541" departPos="random">
        <walk route="i"/>
    </person>
    <person id="269" depart="541" departPos="random">
        <walk route="k"/>
    </person>
    <person id="270" depart="542" departPos="random">
        <walk route="c"/>
    </person>
    <person id="271" depart="544" departPos="random">
        <walk route="i"/>
    </person>
    <person id="272" depart="545" departPos="random">
        <walk route="c"/>
    </person>
    <person id="273" depart="547" departPos="random">
        <walk route="a"/>
    </person>
    <person id="274" depart="547" departPos="random">
        <walk route="i"/>
    </person>
    <person id="275" depart="548" departPos="random">
        <walk route="e"/>
    </person>
    <person id="276" depart="551" departPos="random">
        <walk route="g"/>
    </person>
    <person id="277" depart="551" departPos="random">
        <walk route="k"/>
    </person>
    <person id="278" depart="552" departPos="random">
        <walk route="k"/>
    </person>
    <person id="279" depart="555" departPos="random">
        <walk route="a"/>
    </person>
    <person id="280" depart="559" departPos="random">
        <walk route="e"/>
    </person>
    <person id="281" depart="562" departPos="random">
        <walk route="c"/>
    </person>
    <person id="282" depart="563" departPos="random">
        <walk route="c"/>
    </person>
    <person id="283" depart="565" departPos="random">
        <walk route="i"/>
    </person>
    <person id="284" depart="567" departPos="random">
        <walk route="c"/>
    </person>
    <person id="285" depart="571" departPos="random">
        <walk route="a"/>
    </person>
    <person id="286" depart="573" departPos="random">
        <walk route="a"/>
    </person>
    <person id="287" depart="573" departPos="random">
        <walk route="c"/>
    </person>
    <person id="288" depart="577" departPos="random">
        <walk route="o"/>
    </person>
    <person id="289" depart="579" departPos="random">
        <walk route="m"/>
    </person>
    <person id="290" depart="584" departPos="random">
        <walk route="o"/>
    </person>
    <person id="291" depart="585" departPos="random">
        <walk route="g"/>
    </person>
    <person id="292" depart="589" departPos="random">
        <walk route="k"/>
    </person>
    <person id="293" depart="590" departPos="random">
        <walk route="e"/>
    </person>
    <person id="294" depart="591" departPos="random">
        <walk route="i"/>
    </person>
    <person id="295" depart="592" departPos="random">
        <walk route="e"/>
    </person>
    <person id="296" depart="593" departPos="random">
        <walk route="k"/>
    </person>
    <person id="297" depart="594" departPos="random">
        <walk route="c"/>
    </person>
    <person id="298" depart="595" departPos="random">
        <walk route="c"/>
    </person>
    <person id="299" depart="595" departPos="random">
        <walk route="k"/>
    </person>
    <person id="300" depart="598" departPos="random">
        <walk route="i"/>
    </person>
    <person id="301" depart="598" departPos="random">
        <walk route="m"/>
    </person>
    <person id="302" depart="602" departPos="random">
        <walk route="i"/>
    </person>
    <person id="303" depart="603" departPos="random">
        <walk route="a"/>
    </person>
    <person id="304" depart="604" departPos="random">
        <walk route="c"/>
    </person>
    <person id="305" depart="605" departPos="random">
        <walk route="c"/>
    </person>
    <person id="306" depart="606" departPos="random">
        <walk route="c"/>
    </person>
    <person id="307" depart="608" departPos="random">
        <walk route="c"/>
    </person>
    <person id="308" depart="610" departPos="random">
        <walk route="g"/>
    </person>
    <person id="309" depart="613" departPos="random">
        <walk route="c"/>
    </person>
    <person id="310" depart="613" departPos="random">
        <walk route="o"/>
    </person>
    <person id="311" depart="614" departPos="random">
        <walk route="e"/>
    </person>
    <person id="312" depart="615" departPos="random">
        <walk route="k"/>
    </person>
    <person id="313" depart="617" departPos="random">
        <walk route="k"/>
    </person>
    <person id="314" depart="624" departPos="random">