<routes>

            <vType id="Berliner" accel="0.5" decel="1.0" sigma="0.5" length="0.5" maxSpeed="1.5" minGap="1.0" color="255,165,0" guiShape="pedestrian"  width ="0.5" vClass="pedestrian"/>  

            <route id="a" edges="a_3 3_6"/>
            <route id="c" edges="6_3 3_a"/>
            <route id="e" edges="c_3 3_d"/>
            <route id="g" edges="d_3 3_c"/>
            <route id="i" edges="3_6 6_b"/>
            <route id="k" edges="b_6 6_3"/>
            <route id="m" edges="e_6 6_f"/>
            <route id="o" edges="f_6 6_e"/>
                        
        
    <person id="800000" depart="3" departPos="random">
        <walk route="a"/>
    </person>
    <person id="800001" depart="8" departPos="random">
        <walk route="a"/>
    </person>
    <person id="800002" depart="9" departPos="random">
        <walk route="i"/>
    </person>
    <person id="800003" depart="11" departPos="random">
        <walk route="k"/>
    </person>
    <person id="800004" depart="12" departPos="random">
        <walk route="g"/>
    </person>
    <person id="800005" depart="19" departPos="random">
        <walk route="a"/>
    </person>
    <person id="800006" depart="23" departPos="random">
        <walk route="k"/>
    </person>
    <person id="800007" depart="24" departPos="random">
        <walk route="k"/>
    </person>
    <person id="800008" depart="24" departPos="random">
        <walk route="o"/>
    </person>
    <person id="800009" depart="28" departPos="random">
        <walk route="k"/>
    </person>
    <person id="800010" depart="29" departPos="random">
        <walk route="c"/>
    </person>
    <person id="800011" depart="30" departPos="random">
        <walk route="c"/>
    </person>
    <person id="800012" depart="32" departPos="random">
        <walk route="i"/>
    </person>
    <person id="800013" depart="36" departPos="random">
        <walk route="c"/>
    </person>
    <person id="800014" depart="36" departPos="random">
        <walk route="i"/>
    </person>
    <person id="800015" depart="44" departPos="random">
        <walk route="c"/>
    </person>
    <person id="800016" depart="46" departPos="random">
        <walk route="k"/>
    </person>
    <person id="800017" depart="50" departPos="random">
        <walk route="c"/>
    </person>
    <person id="800018" depart="56" departPos="random">
        <walk route="a"/>
    </person>
    <person id="800019" depart="56" departPos="random">
        <walk route="g"/>
    </person>
    <person id="800020" depart="57" departPos="random">
        <walk route="c"/>
    </person>
    <person id="800021" depart="58" departPos="random">
        <walk route="a"/>
    </person>
    <person id="800022" depart="58" departPos="random">
        <walk route="k"/>
    </person>
    <person id="800023" depart="62" departPos="random">
        <walk route="k"/>
    </person>
    <person id="800024" depart="67" departPos="random">
        <walk route="a"/>
    </person>
    <person id="800025" depart="67" departPos="random">
        <walk route="e"/>
    </person>
    <person id="800026" depart="70" departPos="random">
        <walk route="g"/>
    </person>
    <person id="800027" depart="70" departPos="random">
        <walk route="k"/>
    </person>
    <person id="800028" depart="74" departPos="random">
        <walk route="a"/>
    </person>
    <person id="800029" depart="74" departPos="random">
        <walk route="e"/>
    </person>
    <person id="800030" depart="74" departPos="random">
        <walk route="m"/>
    </person>
    <person id="800031" depart="76" departPos="random">
        <walk route="k"/>
    </person>
    <person id="800032" depart="79" departPos="random">
        <walk route="m"/>
    </person>
    <person id="800033" depart="84" departPos="random">
        <walk route="k"/>
    </person>
    <person id="800034" depart="85" departPos="random">
        <walk route="k"/>
    </person>
    <person id="800035" depart="88" departPos="random">
        <walk route="c"/>
    </person>
    <person id="800036" depart="93" departPos="random">
        <walk route="c"/>
    </person>
    <person id="800037" depart="95" departPos="random">
        <walk route="k"/>
    </person>
    <person id="800038" depart="96" departPos="random">
        <walk route="a"/>
    </person>
    <person id="800039" depart="99" departPos="random">
        <walk route="k"/>
    </person>
    <person id="800040" depart="100" departPos="random">
        <walk route="k"/>
    </person>
    <person id="800041" depart="103" departPos="random">
        <walk route="m"/>
    </person>
    <person id="800042" depart="105" departPos="random">
        <walk route="a"/>
    </person>
    <person id="800043" depart="105" departPos="random">
        <walk route="c"/>
    </person>
    <person id="800044" depart="108" departPos="random">
        <walk route="i"/>
    </person>
    <person id="800045" depart="110" departPos="random">
        <walk route="i"/>
    </person>
    <person id="800046" depart="111" departPos="random">
        <walk route="a"/>
    </person>
    <person id="800047" depart="111" departPos="random">
        <walk route="e"/>
    </person>
    <person id="800048" depart="117" departPos="random">
        <walk route="g"/>
    </person>
    <person id="800049" depart="119" departPos="random">
        <walk route="i"/>
    </person>
    <person id="800050" depart="123" departPos="random">
        <walk route="a"/>
    </person>
    <person id="800051" depart="124" departPos="random">
        <walk route="o"/>
    </person>
    <person id="800052" depart="127" departPos="random">
        <walk route="e"/>
    </person>
    <person id="800053" depart="132" departPos="random">
        <walk route="a"/>
    </person>
    <person id="800054" depart="139" departPos="random">
        <walk route="a"/>
    </person>
    <person id="800055" depart="139" departPos="random">
        <walk route="m"/>
    </person>
    <person id="800056" depart="145" departPos="random">
        <walk route="g"/>
    </person>
    <person id="800057" depart="153" departPos="random">
        <walk route="k"/>
    </person>
    <person id="800058" depart="159" departPos="random">
        <walk route="k"/>
    </person>
    <person id="800059" depart="159" departPos="random">
        <walk route="o"/>
    </person>
    <person id="800060" depart="167" departPos="random">
        <walk route="k"/>
    </person>
    <person id="800061" depart="170" departPos="random">
        <walk route="i"/>
    </person>
    <person id="800062" depart="170" departPos="random">
        <walk route="k"/>
    </person>
    <person id="800063" depart="171" departPos="random">
        <walk route="a"/>
    </person>
    <person id="800064" depart="174" departPos="random">
        <walk route="k"/>
    </person>
    <person id="800065" depart="178" departPos="random">
        <walk route="c"/>
    </person>
    <person id="800066" depart="178" departPos="random">
        <walk route="k"/>
    </person>
    <person id="800067" depart="180" departPos="random">
        <walk route="g"/>
    </person>
    <person id="800068" depart="183" departPos="random">
        <walk route="m"/>
    </person>
    <person id="800069" depart="184" departPos="random">
        <walk route="c"/>
    </person>
    <person id="800070" depart="193" departPos="random">
        <walk route="a"/>
    </person>
    <person id="800071" depart="194" departPos="random">
        <walk route="i"/>
    </person>
    <person id="800072" depart="196" departPos="random">
        <walk route="a"/>
    </person>
    <person id="800073" depart="203" departPos="random">
        <walk route="c"/>
    </person>
    <person id="800074" depart="203" departPos="random">
        <walk route="k"/>
    </person>
    <person id="800075" depart="211" departPos="random">
        <walk route="k"/>
    </person>
    <person id="800076" depart="213" departPos="random">
        <walk route="e"/>
    </person>
    <person id="800077" depart="213" departPos="random">
        <walk route="k"/>
    </person>
    <person id="800078" depart="216" departPos="random">
        <walk route="a"/>
    </person>
    <person id="800079" depart="216" departPos="random">
        <walk route="k"/>
    </person>
    <person id="800080" depart="228" departPos="random">
        <walk route="c"/>
    </person>
    <person id="800081" depart="232" departPos="random">
        <walk route="i"/>
    </person>
    <person id="800082" depart="233" departPos="random">
        <walk route="c"/>
    </person>
    <person id="800083" depart="234" departPos="random">
        <walk route="a"/>
    </person>
    <person id="800084" depart="245" departPos="random">
        <walk route="c"/>
    </person>
    <person id="800085" depart="251" departPos="random">
        <walk route="e"/>
    </person>
    <person id="800086" depart="253" departPos="random">
        <walk route="a"/>
    </person>
    <person id="800087" depart="257" departPos="random">
        <walk route="i"/>
    </person>
    <person id="800088" depart="259" departPos="random">
        <walk route="a"/>
    </person>
    <person id="800089" depart="262" departPos="random">
        <walk route="a"/>
    </person>
    <person id="800090" depart="265" departPos="random">
        <walk route="k"/>
    </person>
    <person id="800091" depart="273" departPos="random">
        <walk route="g"/>
    </person>
    <person id="800092" depart="274" departPos="random">
        <walk route="i"/>
    </person>
    <person id="800093" depart="275" departPos="random">
        <walk route="o"/>
    </person>
    <person id="800094" depart="280" departPos="random">
        <walk route="m"/>
    </person>
    <person id="800095" depart="288" departPos="random">
        <walk route="a"/>
    </person>
    <person id="800096" depart="288" departPos="random">
        <walk route="k"/>
    </person>
    <person id="800097" depart="292" departPos="random">
        <walk route="e"/>
    </person>
    <person id="800098" depart="293" departPos="random">
        <walk route="c"/>
    </person>
    <person id="800099" depart="295" departPos="random">
        <walk route="c"/>
    </person>
    <person id="800100" depart="296" departPos="random">
        <walk route="i"/>
    </person>
    <person id="800101" depart="300" departPos="random">
        <walk route="c"/>
    </person>
    <person id="800102" depart="301" departPos="random">
        <walk route="i"/>
    </person>
    <person id="800103" depart="302" departPos="random">
        <walk route="c"/>
    </person>
    <person id="800104" depart="302" departPos="random">
        <walk route="e"/>
    </person>
    <person id="800105" depart="303" departPos="random">
        <walk route="c"/>
    </person>
    <person id="800106" depart="306" departPos="random">
        <walk route="i"/>
    </person>
    <person id="800107" depart="317" departPos="random">
        <walk route="a"/>
    </person>
    <person id="800108" depart="319" departPos="random">
        <walk route="e"/>
    </person>
    <person id="800109" depart="321" departPos="random">
        <walk route="a"/>
    </person>
    <person id="800110" depart="322" departPos="random">
        <walk route="a"/>
    </person>
    <person id="800111" depart="322" departPos="random">
        <walk route="k"/>
    </person>
    <person id="800112" depart="324" departPos="random">
        <walk route="k"/>
    </person>
    <person id="800113" depart="326" departPos="random">
        <walk route="a"/>
    </person>
    <person id="800114" depart="326" departPos="random">
        <walk route="i"/>
    </person>
    <person id="800115" depart="326" departPos="random">
        <walk route="k"/>
    </person>
    <person id="800116" depart="329" departPos="random">
        <walk route="a"/>
    </person>
    <person id="800117" depart="330" departPos="random">
        <walk route="e"/>
    </person>
    <person id="800118" depart="331" departPos="random">
        <walk route="a"/>
    </person>
    <person id="800119" depart="331" departPos="random">
        <walk route="m"/>
    </person>
    <person id="800120" depart="332" departPos="random">
        <walk route="k"/>
    </person>
    <person id="800121" depart="333" departPos="random">
        <walk route="i"/>
    </person>
    <person id="800122" depart="334" departPos="random">
        <walk route="e"/>
    </person>
    <person id="800123" depart="334" departPos="random">
        <walk route="k"/>
    </person>
    <person id="800124" depart="335" departPos="random">
        <walk route="c"/>
    </person>
    <person id="800125" depart="337" departPos="random">
        <walk route="e"/>
    </person>
    <person id="800126" depart="340" departPos="random">
        <walk route="o"/>
    </person>
    <person id="800127" depart="344" departPos="random">
        <walk route="k"/>
    </person>
    <person id="800128" depart="349" departPos="random">
        <walk route="a"/>
    </person>
    <person id="800129" depart="354" departPos="random">
        <walk route="i"/>
    </person>
    <person id="800130" depart="354" departPos="random">
        <walk route="k"/>
    </person>
    <person id="800131" depart="355" departPos="random">
        <walk route="i"/>
    </person>
    <person id="800132" depart="362" departPos="random">
        <walk route="k"/>
    </person>
    <person id="800133" depart="363" departPos="random">
        <walk route="a"/>
    </person>
    <person id="800134" depart="378" departPos="random">
        <walk route="i"/>
    </person>
    <person id="800135" depart="380" departPos="random">
        <walk route="k"/>
    </person>
    <person id="800136" depart="381" departPos="random">
        <walk route="m"/>
    </person>
    <person id="800137" depart="382" departPos="random">
        <walk route="a"/>
    </person>
    <person id="800138" depart="386" departPos="random">
        <walk route="a"/>
    </person>
    <person id="800139" depart="386" departPos="random">
        <walk route="c"/>
    </person>
    <person id="800140" depart="389" departPos="random">
        <walk route="a"/>
    </person>
    <person id="800141" depart="389" departPos="random">
        <walk route="i"/>
    </person>
    <person id="800142" depart="403" departPos="random">
        <walk route="a"/>
    </person>
    <person id="800143" depart="404" departPos="random">
        <walk route="c"/>
    </person>
    <person id="800144" depart="406" departPos="random">
        <walk route="g"/>
    </person>
    <person id="800145" depart="412" departPos="random">
        <walk route="i"/>
    </person>
    <person id="800146" depart="417" departPos="random">
        <walk route="i"/>
    </person>
    <person id="800147" depart="418" departPos="random">
        <walk route="a"/>
    </person>
    <person id="800148" depart="421" departPos="random">
        <walk route="m"/>
    </person>
    <person id="800149" depart="422" departPos="random">
        <walk route="k"/>
    </person>
    <person id="800150" depart="426" departPos="random">
        <walk route="k"/>
    </person>
    <person id="800151" depart="435" departPos="random">
        <walk route="g"/>
    </person>
    <person id="800152" depart="435" departPos="random">
        <walk route="o"/>
    </person>
    <person id="800153" depart="438" departPos="random">
        <walk route="k"/>
    </person>
    <person id="800154" depart="443" departPos="random">
        <walk route="a"/>
    </person>
    <person id="800155" depart="443" departPos="random">
        <walk route="o"/>
    </person>
    <person id="800156" depart="444" departPos="random">
        <walk route="a"/>
    </person>
    <person id="800157" depart="447" departPos="random">
        <walk route="i"/>
    </person>
    <person id="800158" depart="448" departPos="random">
        <walk route="i"/>
    </person>
    <person id="800159" depart="449" departPos="random">
        <walk route="c"/>
    </person>
    <person id="800160" depart="450" departPos="random">
        <walk route="k"/>
    </person>
    <person id="800161" depart="458" departPos="random">
        <walk route="k"/>
    </person>
    <person id="800162" depart="460" departPos="random">
        <walk route="i"/>
    </person>
    <person id="800163" depart="461" departPos="random">
        <walk route="k"/>
    </person>
    <person id="800164" depart="465" departPos="random">
        <walk route="c"/>
    </person>
    <person id="800165" depart="468" departPos="random">
        <walk route="k"/>
    </person>
    <person id="800166" depart="469" departPos="random">
        <walk route="i"/>
    </person>
    <person id="800167" depart="471" departPos="random">
        <walk route="c"/>
    </person>
    <person id="800168" depart="474" departPos="random">
        <walk route="c"/>
    </person>
    <person id="800169" depart="478" departPos="random">
        <walk route="c"/>
    </person>
    <person id="800170" depart="478" departPos="random">
        <walk route="i"/>
    </person>
    <person id="800171" depart="479" departPos="random">
        <walk route="c"/>
    </person>
    <person id="800172" depart="480" departPos="random">
        <walk route="i"/>
    </person>
    <person id="800173" depart="482" departPos="random">
        <walk route="k"/>
    </person>
    <person id="800174" depart="484" departPos="random">
        <walk route="i"/>
    </person>
    <person id="800175" depart="485" departPos="random">
        <walk route="c"/>
    </person>
    <person id="800176" depart="485" departPos="random">
        <walk route="k"/>
    </person>
    <person id="800177" depart="487" departPos="random">
        <walk route="g"/>
    </person>
    <person id="800178" depart="490" departPos="random">
        <walk route="a"/>
    </person>
    <person id="800179" depart="493" departPos="random">
        <walk route="i"/>
    </person>
    <person id="800180" depart="495" departPos="random">
        <walk route="c"/>
    </person>
    <person id="800181" depart="496" departPos="random">
        <walk route="a"/>
    </person>
    <person id="800182" depart="497" departPos="random">
        <walk route="k"/>
    </person>
    <person id="800183" depart="500" departPos="random">
        <walk route="c"/>
    </person>
    <person id="800184" depart="502" departPos="random">
        <walk route="a"/>
    </person>
    <person id="800185" depart="502" departPos="random">
        <walk route="i"/>
    </person>
    <person id="800186" depart="502" departPos="random">
        <walk route="m"/>
    </person>
    <person id="800187" depart="504" departPos="random">
        <walk route="g"/>
    </person>
    <person id="800188" depart="508" departPos="random">
        <walk route="k"/>
    </person>
    <person id="800189" depart="508" departPos="random">
        <walk route="m"/>
    </person>
    <person id="800190" depart="510" departPos="random">
        <walk route="k"/>
    </person>
    <person id="800191" depart="519" departPos="random">
        <walk route="m"/>
    </person>
    <person id="800192" depart="522" departPos="random">
        <walk route="a"/>
    </person>
    <person id="800193" depart="531" departPos="random">
        <walk route="c"/>
    </person>
    <person id="800194" depart="533" departPos="random">
        <walk route="c"/>
    </person>
    <person id="800195" depart="534" departPos="random">
        <walk route="i"/>
    </person>
    <person id="800196" depart="536" departPos="random">
        <walk route="a"/>
    </person>
    <person id="800197" depart="537" departPos="random">
        <walk route="a"/>
    </person>
    <person id="800198" depart="538" departPos="random">
        <walk route="a"/>
    </person>
    <person id="800199" depart="540" departPos="random">
        <walk route="k"/>
    </person>
    <person id="800200" depart="543" departPos="random">
        <walk route="c"/>
    </person>
    <person id="800201" depart="550" departPos="random">
        <walk route="c"/>
    </person>
    <person id="800202" depart="551" departPos="random">
        <walk route="a"/>
    </person>
    <person id="800203" depart="555" departPos="random">
        <walk route="i"/>
    </person>
    <person id="800204" depart="558" departPos="random">
        <walk route="c"/>
    </person>
    <person id="800205" depart="560" departPos="random">
        <walk route="c"/>
    </person>
    <person id="800206" depart="563" departPos="random">
        <walk route="a"/>
    </person>
    <person id="800207" depart="563" departPos="random">
        <walk route="m"/>
    </person>
    <person id="800208" depart="564" departPos="random">
        <walk route="c"/>
    </person>
    <person id="800209" depart="564" departPos="random">
        <walk route="i"/>
    </person>
    <person id="800210" depart="564" departPos="random">
        <walk route="k"/>
    </person>
    <person id="800211" depart="565" departPos="random">
        <walk route="a"/>
    </person>
    <person id="800212" depart="574" departPos="random">
        <walk route="k"/>
    </person>
    <person id="800213" depart="575" departPos="random">
        <walk route="c"/>
    </person>
    <person id="800214" depart="577" departPos="random">
        <walk route="i"/>
    </person>
    <person id="800215" depart="578" departPos="random">
        <walk route="a"/>
    </person>
    <person id="800216" depart="579" departPos="random">
        <walk route="i"/>
    </person>
    <person id="800217" depart="584" departPos="random">
        <walk route="c"/>
    </person>
    <person id="800218" depart="591" departPos="random">
        <walk route="c"/>
    </person>
    <person id="800219" depart="596" departPos="random">
        <walk route="m"/>
    </person>
    <person id="800220" depart="598" departPos="random">
        <walk route="i"/>
    </person>
    <person id="800221" depart="600" departPos="random">
        <walk route="o"/>
    </person>
    <person id="800222" depart="602" departPos="random">
        <walk route="a"/>
    </person>
    <person id="800223" depart="607" departPos="random">
        <walk route="c"/>
    </person>
    <person id="800224" depart="612" departPos="random">
        <walk route="c"/>
    </person>
    <person id="800225" depart="613" departPos="random">
        <walk route="c"/>
    </person>
    <person id="800226" depart="613" departPos="random">
        <walk route="o"/>
    </person>
    <person id="800227" depart="615" departPos="random">
        <walk route="a"/>
    </person>
    <person id="800228" depart="616" departPos="random">
        <walk route="e"/>
    </person>
    <person id="800229" depart="616" departPos="random">
        <walk route="m"/>
    </person>
    <person id="800230" depart="618" departPos="random">
        <walk route="c"/>
    </person>
    <person id="800231" depart="626" departPos="random">
        <walk route="a"/>
    </person>
    <person id="800232" depart="626" departPos="random">
        <walk route="k"/>
    </person>
    <person id="800233" depart="628" departPos="random">
        <walk route="o"/>
    </person>
    <person id="800234" depart="630" departPos="random">
        <walk route="o"/>
    </person>
    <person id="800235" depart="632" departPos="random">
        <walk route="c"/>
    </person>
    <person id="800236" depart="633" departPos="random">
        <walk route="c"/>
    </person>
    <person id="800237" depart="638" departPos="random">
        <walk route="k"/>
    </person>
    <person id="800238" depart="640" departPos="random">
        <walk route="i"/>
    </person>
    <person id="800239" depart="642" departPos="random">
        <walk route="i"/>
    </person>
    <person id="800240" depart="645" departPos="random">
        <walk route="i"/>
    </person>
    <person id="800241" depart="650" departPos="random">
        <walk route="c"/>
    </person>
    <person id="800242" depart="653" departPos="random">
        <walk route="i"/>
    </person>
    <person id="800243" depart="658" departPos="random">
        <walk route="i"/>
    </person>
    <person id="800244" depart="658" departPos="random">
        <walk route="k"/>
    </person>
    <person id="800245" depart="659" departPos="random">
        <walk route="o"/>
    </person>
    <person id="800246" depart="666" departPos="random">
        <walk route="k"/>
    </person>
    <person id="800247" depart="672" departPos="random">
        <walk route="i"/>
    </person>
    <person id="800248" depart="672" departPos="random">
        <walk route="m"/>
    </person>
    <person id="800249" depart="679" departPos="random">
        <walk route="o"/>
    </person>
    <person id="800250" depart="687" departPos="random">
        <walk route="a"/>
    </person>
    <person id="800251" depart="687" departPos="random">
        <walk route="c"/>
    </person>
    <person id="800252" depart="688" departPos="random">
        <walk route="c"/>
    </person>
    <person id="800253" depart="690" departPos="random">
        <walk route="k"/>
    </person>
    <person id="800254" depart="693" departPos="random">
        <walk route="o"/>
    </person>
    <person id="800255" depart="694" departPos="random">
        <walk route="g"/>
    </person>
    <person id="800256" depart="696" departPos="random">
        <walk route="o"/>
    </person>
    <person id="800257" depart="699" departPos="random">
        <walk route="k"/>
    </person>
    <person id="800258" depart="703" departPos="random">
        <walk route="k"/>
    </person>
    <person id="800259" depart="704" departPos="random">
        <walk route="c"/>
    </person>
    <person id="800260" depart="713" departPos="random">
        <walk route="a"/>
    </person>
    <person id="800261" depart="714" departPos="random">
        <walk route="k"/>
    </person>
    <person id="800262" depart="718" departPos="random">
        <walk route="k"/>
    </person>
    <person id="800263" depart="720" departPos="random">
        <walk route="i"/>
    </person>
    <person id="800264" depart="720" departPos="random">
        <walk route="m"/>
    </person>
    <person id="800265" depart="725" departPos="random">
        <walk route="k"/>
    </person>
    <person id="800266" depart="726" departPos="random">
        <walk route="i"/>
    </person>
    <person id="800267" depart="730" departPos="random">
        <walk route="k"/>
    </person>
    <person id="800268" depart="731" departPos="random">
        <walk route="a"/>
    </person>
    <person id="800269" depart="734" departPos="random">
        <walk route="a"/>
    </person>
    <person id="800270" depart="747" departPos="random">
        <walk route="c"/>
    </person>
    <person id="800271" depart="748" departPos="random">
        <walk route="a"/>
    </person>
    <person id="800272" depart="749" departPos="random">
        <walk route="i"/>
    </person>
    <person id="800273" depart="761" departPos="random">
        <walk route="a"/>
    </person>
    <person id="800274" depart="771" departPos="random">
        <walk route="k"/>
    </person>
    <person id="800275" depart="782" departPos="random">
        <walk route="a"/>
    </person>
    <person id="800276" depart="783" departPos="random">
        <walk route="a"/>
    </person>
    <person id="800277" depart="788" departPos="random">
        <walk route="i"/>
    </person>
    <person id="800278" depart="790" departPos="random">
        <walk route="g"/>
    </person>
    <person id="800279" depart="792" departPos="random">
        <walk route="a"/>
    </person>
    <person id="800280" depart="794" departPos="random">
        <walk route="a"/>
    </person>
    <person id="800281" depart="796" departPos="random">
        <walk route="k"/>
    </person>
    <person id="800282" depart="799" departPos="random">
        <walk route="m"/>
    </person>
    <person id="800283" depart="801" departPos="random">
        <walk route="i"/>
    </person>
    <person id="800284" depart="801" departPos="random">
        <walk route="m"/>
    </person>
    <person id="800285" depart="803" departPos="random">
        <walk route="a"/>
    </person>
    <person id="800286" depart="806" departPos="random">
        <walk route="k"/>
    </person>
    <person id="800287" depart="807" departPos="random">
        <walk route="i"/>
    </person>
    <person id="800288" depart="808" departPos="random">
        <walk route="k"/>
    </person>
    <person id="800289" depart="811" departPos="random">
        <walk route="c"/>
    </person>
    <person id="800290" depart="818" departPos="random">
        <walk route="c"/>
    </person>
    <person id="800291" depart="818" departPos="random">
        <walk route="o"/>
    </person>
    <person id="800292" depart="821" departPos="random">
        <walk route="a"/>
    </person>
    <person id="800293" depart="830" departPos="random">
        <walk route="i"/>
    </person>
    <person id="800294" depart="830" departPos="random">
        <walk route="k"/>
    </person>
    <person id="800295" depart="833" departPos="random">
        <walk route="i"/>
    </person>
    <person id="800296" depart="835" departPos="random">
        <walk route="k"/>
    </person>
    <person id="800297" depart="837" departPos="random">
        <walk route="e"/>
    </person>
    <person id="800298" depart="838" departPos="random">
        <walk route="a"/>
    </person>
    <person id="800299" depart="839" departPos="random">
        <walk route="a"/>
    </person>
    <person id="800300" depart="843" departPos="random">
        <walk route="g"/>
    </person>
    <person id="800301" depart="844" departPos="random">
        <walk route="c"/>
    </person>
    <person id="800302" depart="846" departPos="random">
        <walk route="c"/>
    </person>
    <person id="800303" depart="850" departPos="random">