<routes>

            <vType id="Berliner" accel="0.5" decel="1.0" sigma="0.5" length="0.5" maxSpeed="1.5" minGap="1.0" color="255,165,0" guiShape="pedestrian"  width ="0.5" vClass="pedestrian"/>  

            <route id="a" edges="a_3 3_6"/>
            <route id="c" edges="6_3 3_a"/>
            <route id="e" edges="c_3 3_d"/>
            <route id="g" edges="d_3 3_c"/>
            <route id="i" edges="3_6 6_b"/>
            <route id="k" edges="b_6 6_3"/>
            <route id="m" edges="e_6 6_f"/>
            <route id="o" edges="f_6 6_e"/>
                        
        
    <person id="800000" depart="0" departPos="random">
        <walk route="k"/>
    </person>
    <person id="800001" depart="1" departPos="random">
        <walk route="c"/>
    </person>
    <person id="800002" depart="5" departPos="random">
        <walk route="a"/>
    </person>
    <person id="800003" depart="5" departPos="random">
        <walk route="k"/>
    </person>
    <person id="800004" depart="8" departPos="random">
        <walk route="g"/>
    </person>
    <person id="800005" depart="10" departPos="random">
        <walk route="c"/>
    </person>
    <person id="800006" depart="12" departPos="random">
        <walk route="a"/>
    </person>
    <person id="800007" depart="12" departPos="random">
        <walk route="c"/>
    </person>
    <person id="800008" depart="13" departPos="random">
        <walk route="k"/>
    </person>
    <person id="800009" depart="14" departPos="random">
        <walk route="k"/>
    </person>
    <person id="800010" depart="16" departPos="random">
        <walk route="a"/>
    </person>
    <person id="800011" depart="17" departPos="random">
        <walk route="m"/>
    </person>
    <person id="800012" depart="19" departPos="random">
        <walk route="i"/>
    </person>
    <person id="800013" depart="24" departPos="random">
        <walk route="i"/>
    </person>
    <person id="800014" depart="33" departPos="random">
        <walk route="a"/>
    </person>
    <person id="800015" depart="45" departPos="random">
        <walk route="i"/>
    </person>
    <person id="800016" depart="46" departPos="random">
        <walk route="o"/>
    </person>
    <person id="800017" depart="50" departPos="random">
        <walk route="a"/>
    </person>
    <person id="800018" depart="53" departPos="random">
        <walk route="i"/>
    </person>
    <person id="800019" depart="55" departPos="random">
        <walk route="i"/>
    </person>
    <person id="800020" depart="56" departPos="random">
        <walk route="i"/>
    </person>
    <person id="800021" depart="58" departPos="random">
        <walk route="k"/>
    </person>
    <person id="800022" depart="60" departPos="random">
        <walk route="a"/>
    </person>
    <person id="800023" depart="60" departPos="random">
        <walk route="k"/>
    </person>
    <person id="800024" depart="62" departPos="random">
        <walk route="g"/>
    </person>
    <person id="800025" depart="62" departPos="random">
        <walk route="i"/>
    </person>
    <person id="800026" depart="66" departPos="random">
        <walk route="a"/>
    </person>
    <person id="800027" depart="67" departPos="random">
        <walk route="a"/>
    </person>
    <person id="800028" depart="68" departPos="random">
        <walk route="k"/>
    </person>
    <person id="800029" depart="70" departPos="random">
        <walk route="a"/>
    </person>
    <person id="800030" depart="79" departPos="random">
        <walk route="m"/>
    </person>
    <person id="800031" depart="83" departPos="random">
        <walk route="i"/>
    </person>
    <person id="800032" depart="83" departPos="random">
        <walk route="k"/>
    </person>
    <person id="800033" depart="85" departPos="random">
        <walk route="i"/>
    </person>
    <person id="800034" depart="88" departPos="random">
        <walk route="c"/>
    </person>
    <person id="800035" depart="89" departPos="random">
        <walk route="a"/>
    </person>
    <person id="800036" depart="97" departPos="random">
        <walk route="m"/>
    </person>
    <person id="800037" depart="99" departPos="random">
        <walk route="c"/>
    </person>
    <person id="800038" depart="102" departPos="random">
        <walk route="i"/>
    </person>
    <person id="800039" depart="105" departPos="random">
        <walk route="k"/>
    </person>
    <person id="800040" depart="108" departPos="random">
        <walk route="i"/>
    </person>
    <person id="800041" depart="109" departPos="random">
        <walk route="c"/>
    </person>
    <person id="800042" depart="111" departPos="random">
        <walk route="c"/>
    </person>
    <person id="800043" depart="112" departPos="random">
        <walk route="k"/>
    </person>
    <person id="800044" depart="118" departPos="random">
        <walk route="i"/>
    </person>
    <person id="800045" depart="118" departPos="random">
        <walk route="k"/>
    </person>
    <person id="800046" depart="120" departPos="random">
        <walk route="a"/>
    </person>
    <person id="800047" depart="124" departPos="random">
        <walk route="k"/>
    </person>
    <person id="800048" depart="124" departPos="random">
        <walk route="m"/>
    </person>
    <person id="800049" depart="125" departPos="random">
        <walk route="c"/>
    </person>
    <person id="800050" depart="128" departPos="random">
        <walk route="c"/>
    </person>
    <person id="800051" depart="130" departPos="random">
        <walk route="c"/>
    </person>
    <person id="800052" depart="130" departPos="random">
        <walk route="i"/>
    </person>
    <person id="800053" depart="136" departPos="random">
        <walk route="m"/>
    </person>
    <person id="800054" depart="138" departPos="random">
        <walk route="k"/>
    </person>
    <person id="800055" depart="143" departPos="random">
        <walk route="k"/>
    </person>
    <person id="800056" depart="144" departPos="random">
        <walk route="k"/>
    </person>
    <person id="800057" depart="145" departPos="random">
        <walk route="o"/>
    </person>
    <person id="800058" depart="146" departPos="random">
        <walk route="e"/>
    </person>
    <person id="800059" depart="152" departPos="random">
        <walk route="i"/>
    </person>
    <person id="800060" depart="153" departPos="random">
        <walk route="a"/>
    </person>
    <person id="800061" depart="163" departPos="random">
        <walk route="a"/>
    </person>
    <person id="800062" depart="163" departPos="random">
        <walk route="c"/>
    </person>
    <person id="800063" depart="163" departPos="random">
        <walk route="k"/>
    </person>
    <person id="800064" depart="169" departPos="random">
        <walk route="m"/>
    </person>
    <person id="800065" depart="170" departPos="random">
        <walk route="e"/>
    </person>
    <person id="800066" depart="171" departPos="random">
        <walk route="a"/>
    </person>
    <person id="800067" depart="172" departPos="random">
        <walk route="i"/>
    </person>
    <person id="800068" depart="176" departPos="random">
        <walk route="e"/>
    </person>
    <person id="800069" depart="182" departPos="random">
        <walk route="a"/>
    </person>
    <person id="800070" depart="186" departPos="random">
        <walk route="c"/>
    </person>
    <person id="800071" depart="190" departPos="random">
        <walk route="k"/>
    </person>
    <person id="800072" depart="193" departPos="random">
        <walk route="c"/>
    </person>
    <person id="800073" depart="193" departPos="random">
        <walk route="k"/>
    </person>
    <person id="800074" depart="196" departPos="random">
        <walk route="c"/>
    </person>
    <person id="800075" depart="198" departPos="random">
        <walk route="i"/>
    </person>
    <person id="800076" depart="200" departPos="random">
        <walk route="g"/>
    </person>
    <person id="800077" depart="205" departPos="random">
        <walk route="c"/>
    </person>
    <person id="800078" depart="205" departPos="random">
        <walk route="g"/>
    </person>
    <person id="800079" depart="207" departPos="random">
        <walk route="c"/>
    </person>
    <person id="800080" depart="207" departPos="random">
        <walk route="i"/>
    </person>
    <person id="800081" depart="208" departPos="random">
        <walk route="c"/>
    </person>
    <person id="800082" depart="209" departPos="random">
        <walk route="k"/>
    </person>
    <person id="800083" depart="210" departPos="random">
        <walk route="k"/>
    </person>
    <person id="800084" depart="214" departPos="random">
        <walk route="a"/>
    </person>
    <person id="800085" depart="215" departPos="random">
        <walk route="i"/>
    </person>
    <person id="800086" depart="215" departPos="random">
        <walk route="o"/>
    </person>
    <person id="800087" depart="223" departPos="random">
        <walk route="g"/>
    </person>
    <person id="800088" depart="228" departPos="random">
        <walk route="k"/>
    </person>
    <person id="800089" depart="230" departPos="random">
        <walk route="a"/>
    </person>
    <person id="800090" depart="230" departPos="random">
        <walk route="c"/>
    </person>
    <person id="800091" depart="231" departPos="random">
        <walk route="k"/>
    </person>
    <person id="800092" depart="233" departPos="random">
        <walk route="a"/>
    </person>
    <person id="800093" depart="234" departPos="random">
        <walk route="a"/>
    </person>
    <person id="800094" depart="235" departPos="random">
        <walk route="k"/>
    </person>
    <person id="800095" depart="237" departPos="random">
        <walk route="k"/>
    </person>
    <person id="800096" depart="237" departPos="random">
        <walk route="o"/>
    </person>
    <person id="800097" depart="242" departPos="random">
        <walk route="c"/>
    </person>
    <person id="800098" depart="250" departPos="random">
        <walk route="k"/>
    </person>
    <person id="800099" depart="251" departPos="random">
        <walk route="a"/>
    </person>
    <person id="800100" depart="251" departPos="random">
        <walk route="c"/>
    </person>
    <person id="800101" depart="254" departPos="random">
        <walk route="a"/>
    </person>
    <person id="800102" depart="254" departPos="random">
        <walk route="c"/>
    </person>
    <person id="800103" depart="268" departPos="random">
        <walk route="k"/>
    </person>
    <person id="800104" depart="269" departPos="random">
        <walk route="k"/>
    </person>
    <person id="800105" depart="270" departPos="random">
        <walk route="a"/>
    </person>
    <person id="800106" depart="273" departPos="random">
        <walk route="a"/>
    </person>
    <person id="800107" depart="275" departPos="random">
        <walk route="i"/>
    </person>
    <person id="800108" depart="277" departPos="random">
        <walk route="c"/>
    </person>
    <person id="800109" depart="277" departPos="random">
        <walk route="i"/>
    </person>
    <person id="800110" depart="281" departPos="random">
        <walk route="k"/>
    </person>
    <person id="800111" depart="284" departPos="random">
        <walk route="a"/>
    </person>
    <person id="800112" depart="289" departPos="random">
        <walk route="k"/>
    </person>
    <person id="800113" depart="290" departPos="random">
        <walk route="o"/>
    </person>
    <person id="800114" depart="294" departPos="random">
        <walk route="a"/>
    </person>
    <person id="800115" depart="302" departPos="random">
        <walk route="k"/>
    </person>
    <person id="800116" depart="304" departPos="random">
        <walk route="k"/>
    </person>
    <person id="800117" depart="305" departPos="random">
        <walk route="c"/>
    </person>
    <person id="800118" depart="305" departPos="random">
        <walk route="i"/>
    </person>
    <person id="800119" depart="308" departPos="random">
        <walk route="a"/>
    </person>
    <person id="800120" depart="308" departPos="random">
        <walk route="c"/>
    </person>
    <person id="800121" depart="311" departPos="random">
        <walk route="a"/>
    </person>
    <person id="800122" depart="311" departPos="random">
        <walk route="i"/>
    </person>
    <person id="800123" depart="312" departPos="random">
        <walk route="k"/>
    </person>
    <person id="800124" depart="316" departPos="random">
        <walk route="g"/>
    </person>
    <person id="800125" depart="318" departPos="random">
        <walk route="a"/>
    </person>
    <person id="800126" depart="320" departPos="random">
        <walk route="k"/>
    </person>
    <person id="800127" depart="321" departPos="random">
        <walk route="g"/>
    </person>
    <person id="800128" depart="322" departPos="random">
        <walk route="c"/>
    </person>
    <person id="800129" depart="323" departPos="random">
        <walk route="e"/>
    </person>
    <person id="800130" depart="323" departPos="random">
        <walk route="i"/>
    </person>
    <person id="800131" depart="327" departPos="random">
        <walk route="c"/>
    </person>
    <person id="800132" depart="332" departPos="random">
        <walk route="k"/>
    </person>
    <person id="800133" depart="334" departPos="random">
        <walk route="k"/>
    </person>
    <person id="800134" depart="339" departPos="random">
        <walk route="a"/>
    </person>
    <person id="800135" depart="340" departPos="random">
        <walk route="i"/>
    </person>
    <person id="800136" depart="341" departPos="random">
        <walk route="k"/>
    </person>
    <person id="800137" depart="342" departPos="random">
        <walk route="e"/>
    </person>
    <person id="800138" depart="343" departPos="random">
        <walk route="a"/>
    </person>
    <person id="800139" depart="343" departPos="random">
        <walk route="c"/>
    </person>
    <person id="800140" depart="346" departPos="random">
        <walk route="e"/>
    </person>
    <person id="800141" depart="348" departPos="random">
        <walk route="k"/>
    </person>
    <person id="800142" depart="349" departPos="random">
        <walk route="k"/>
    </person>
    <person id="800143" depart="358" departPos="random">
        <walk route="i"/>
    </person>
    <person id="800144" depart="360" departPos="random">
        <walk route="i"/>
    </person>
    <person id="800145" depart="365" departPos="random">
        <walk route="a"/>
    </person>
    <person id="800146" depart="372" departPos="random">
        <walk route="i"/>
    </person>
    <person id="800147" depart="377" departPos="random">
        <walk route="a"/>
    </person>
    <person id="800148" depart="377" departPos="random">
        <walk route="i"/>
    </person>
    <person id="800149" depart="381" departPos="random">
        <walk route="a"/>
    </person>
    <person id="800150" depart="384" departPos="random">
        <walk route="k"/>
    </person>
    <person id="800151" depart="390" departPos="random">
        <walk route="i"/>
    </person>
    <person id="800152" depart="390" departPos="random">
        <walk route="o"/>
    </person>
    <person id="800153" depart="394" departPos="random">
        <walk route="c"/>
    </person>
    <person id="800154" depart="399" departPos="random">
        <walk route="o"/>
    </person>
    <person id="800155" depart="400" departPos="random">
        <walk route="a"/>
    </person>
    <person id="800156" depart="402" departPos="random">
        <walk route="k"/>
    </person>
    <person id="800157" depart="409" departPos="random">
        <walk route="m"/>
    </person>
    <person id="800158" depart="410" departPos="random">
        <walk route="m"/>
    </person>
    <person id="800159" depart="411" departPos="random">
        <walk route="c"/>
    </person>
    <person id="800160" depart="411" departPos="random">
        <walk route="i"/>
    </person>
    <person id="800161" depart="412" departPos="random">
        <walk route="k"/>
    </person>
    <person id="800162" depart="414" departPos="random">
        <walk route="k"/>
    </person>
    <person id="800163" depart="417" departPos="random">
        <walk route="o"/>
    </person>
    <person id="800164" depart="421" departPos="random">
        <walk route="c"/>
    </person>
    <person id="800165" depart="421" departPos="random">
        <walk route="k"/>
    </person>
    <person id="800166" depart="422" departPos="random">
        <walk route="i"/>
    </person>
    <person id="800167" depart="424" departPos="random">
        <walk route="c"/>
    </person>
    <person id="800168" depart="425" departPos="random">
        <walk route="c"/>
    </person>
    <person id="800169" depart="425" departPos="random">
        <walk route="i"/>
    </person>
    <person id="800170" depart="428" departPos="random">
        <walk route="a"/>
    </person>
    <person id="800171" depart="433" departPos="random">
        <walk route="a"/>
    </person>
    <person id="800172" depart="433" departPos="random">
        <walk route="e"/>
    </person>
    <person id="800173" depart="434" departPos="random">
        <walk route="c"/>
    </person>
    <person id="800174" depart="438" departPos="random">
        <walk route="k"/>
    </person>
    <person id="800175" depart="440" departPos="random">
        <walk route="c"/>
    </person>
    <person id="800176" depart="440" departPos="random">
        <walk route="k"/>
    </person>
    <person id="800177" depart="441" departPos="random">
        <walk route="a"/>
    </person>
    <person id="800178" depart="442" departPos="random">
        <walk route="k"/>
    </person>
    <person id="800179" depart="444" departPos="random">
        <walk route="i"/>
    </person>
    <person id="800180" depart="444" departPos="random">
        <walk route="o"/>
    </person>
    <person id="800181" depart="446" departPos="random">
        <walk route="k"/>
    </person>
    <person id="800182" depart="447" departPos="random">
        <walk route="c"/>
    </person>
    <person id="800183" depart="447" departPos="random">
        <walk route="i"/>
    </person>
    <person id="800184" depart="449" departPos="random">
        <walk route="i"/>
    </person>
    <person id="800185" depart="452" departPos="random">
        <walk route="c"/>
    </person>
    <person id="800186" depart="454" departPos="random">
        <walk route="i"/>
    </person>
    <person id="800187" depart="456" departPos="random">
        <walk route="i"/>
    </person>
    <person id="800188" depart="456" departPos="random">
        <walk route="m"/>
    </person>
    <person id="800189" depart="458" departPos="random">
        <walk route="i"/>
    </person>
    <person id="800190" depart="461" departPos="random">
        <walk route="i"/>
    </person>
    <person id="800191" depart="464" departPos="random">
        <walk route="e"/>
    </person>
    <person id="800192" depart="466" departPos="random">
        <walk route="a"/>
    </person>
    <person id="800193" depart="467" departPos="random">
        <walk route="a"/>
    </person>
    <person id="800194" depart="471" departPos="random">
        <walk route="a"/>
    </person>
    <person id="800195" depart="471" departPos="random">
        <walk route="c"/>
    </person>
    <person id="800196" depart="472" departPos="random">
        <walk route="i"/>
    </person>
    <person id="800197" depart="474" departPos="random">
        <walk route="c"/>
    </person>
    <person id="800198" depart="475" departPos="random">
        <walk route="c"/>
    </person>
    <person id="800199" depart="476" departPos="random">
        <walk route="c"/>
    </person>
    <person id="800200" depart="477" departPos="random">
        <walk route="i"/>
    </person>
    <person id="800201" depart="478" departPos="random">
        <walk route="c"/>
    </person>
    <person id="800202" depart="478" departPos="random">
        <walk route="k"/>
    </person>
    <person id="800203" depart="481" departPos="random">
        <walk route="i"/>
    </person>
    <person id="800204" depart="487" departPos="random">
        <walk route="k"/>
    </person>
    <person id="800205" depart="493" departPos="random">
        <walk route="k"/>
    </person>
    <person id="800206" depart="493" departPos="random">
        <walk route="m"/>
    </person>
    <person id="800207" depart="494" departPos="random">
        <walk route="a"/>
    </person>
    <person id="800208" depart="495" departPos="random">
        <walk route="o"/>
    </person>
    <person id="800209" depart="503" departPos="random">
        <walk route="o"/>
    </person>
    <person id="800210" depart="504" departPos="random">
        <walk route="i"/>
    </person>
    <person id="800211" depart="505" departPos="random">
        <walk route="i"/>
    </person>
    <person id="800212" depart="508" departPos="random">
        <walk route="c"/>
    </person>
    <person id="800213" depart="509" departPos="random">
        <walk route="i"/>
    </person>
    <person id="800214" depart="514" departPos="random">
        <walk route="a"/>
    </person>
    <person id="800215" depart="514" departPos="random">
        <walk route="c"/>
    </person>
    <person id="800216" depart="518" departPos="random">
        <walk route="i"/>
    </person>
    <person id="800217" depart="520" departPos="random">
        <walk route="i"/>
    </person>
    <person id="800218" depart="522" departPos="random">
        <walk route="k"/>
    </person>
    <person id="800219" depart="528" departPos="random">
        <walk route="k"/>
    </person>
    <person id="800220" depart="532" departPos="random">
        <walk route="o"/>
    </person>
    <person id="800221" depart="536" departPos="random">
        <walk route="i"/>
    </person>
    <person id="800222" depart="539" departPos="random">
        <walk route="k"/>
    </person>
    <person id="800223" depart="540" departPos="random">
        <walk route="c"/>
    </person>
    <person id="800224" depart="543" departPos="random">
        <walk route="c"/>
    </person>
    <person id="800225" depart="544" departPos="random">
        <walk route="o"/>
    </person>
    <person id="800226" depart="545" departPos="random">
        <walk route="a"/>
    </person>
    <person id="800227" depart="546" departPos="random">
        <walk route="i"/>
    </person>
    <person id="800228" depart="550" departPos="random">
        <walk route="a"/>
    </person>
    <person id="800229" depart="551" departPos="random">
        <walk route="c"/>
    </person>
    <person id="800230" depart="551" departPos="random">
        <walk route="k"/>
    </person>
    <person id="800231" depart="555" departPos="random">
        <walk route="i"/>
    </person>
    <person id="800232" depart="556" departPos="random">
        <walk route="a"/>
    </person>
    <person id="800233" depart="556" departPos="random">
        <walk route="o"/>
    </person>
    <person id="800234" depart="558" departPos="random">
        <walk route="k"/>
    </person>
    <person id="800235" depart="565" departPos="random">
        <walk route="i"/>
    </person>
    <person id="800236" depart="568" departPos="random">
        <walk route="c"/>
    </person>
    <person id="800237" depart="569" departPos="random">
        <walk route="k"/>
    </person>
    <person id="800238" depart="571" departPos="random">
        <walk route="e"/>
    </person>
    <person id="800239" depart="571" departPos="random">
        <walk route="i"/>
    </person>
    <person id="800240" depart="575" departPos="random">
        <walk route="i"/>
    </person>
    <person id="800241" depart="576" departPos="random">
        <walk route="m"/>
    </person>
    <person id="800242" depart="577" departPos="random">
        <walk route="a"/>
    </person>
    <person id="800243" depart="577" departPos="random">
        <walk route="i"/>
    </person>
    <person id="800244" depart="580" departPos="random">
        <walk route="i"/>
    </person>
    <person id="800245" depart="580" departPos="random">
        <walk route="m"/>
    </person>
    <person id="800246" depart="584" departPos="random">
        <walk route="c"/>
    </person>
    <person id="800247" depart="586" departPos="random">
        <walk route="c"/>
    </person>
    <person id="800248" depart="589" departPos="random">
        <walk route="k"/>
    </person>
    <person id="800249" depart="591" departPos="random">
        <walk route="i"/>
    </person>
    <person id="800250" depart="593" departPos="random">
        <walk route="a"/>
    </person>
    <person id="800251" depart="593" departPos="random">
        <walk route="o"/>
    </person>
    <person id="800252" depart="594" departPos="random">
        <walk route="m"/>
    </person>
    <person id="800253" depart="596" departPos="random">
        <walk route="c"/>
    </person>
    <person id="800254" depart="597" departPos="random">
        <walk route="a"/>
    </person>
    <person id="800255" depart="597" departPos="random">
        <walk route="i"/>
    </person>
    <person id="800256" depart="598" departPos="random">
        <walk route="i"/>
    </person>
    <person id="800257" depart="600" departPos="random">
        <walk route="o"/>
    </person>
    <person id="800258" depart="602" departPos="random">
        <walk route="i"/>
    </person>
    <person id="800259" depart="604" departPos="random">
        <walk route="c"/>
    </person>
    <person id="800260" depart="604" departPos="random">
        <walk route="g"/>
    </person>
    <person id="800261" depart="604" departPos="random">
        <walk route="k"/>
    </person>
    <person id="800262" depart="605" departPos="random">
        <walk route="i"/>
    </person>
    <person id="800263" depart="612" departPos="random">
        <walk route="a"/>
    </person>
    <person id="800264" depart="612" departPos="random">
        <walk route="i"/>
    </person>
    <person id="800265" depart="614" departPos="random">
        <walk route="c"/>
    </person>
    <person id="800266" depart="618" departPos="random">
        <walk route="i"/>
    </person>
    <person id="800267" depart="619" departPos="random">
        <walk route="c"/>
    </person>
    <person id="800268" depart="621" departPos="random">
        <walk route="c"/>
    </person>
    <person id="800269" depart="622" departPos="random">
        <walk route="a"/>
    </person>
    <person id="800270" depart="623" departPos="random">
        <walk route="a"/>
    </person>
    <person id="800271" depart="627" departPos="random">
        <walk route="k"/>
    </person>
    <person id="800272" depart="632" departPos="random">
        <walk route="a"/>
    </person>
    <person id="800273" depart="633" departPos="random">
        <walk route="a"/>
    </person>
    <person id="800274" depart="638" departPos="random">
        <walk route="e"/>
    </person>
    <person id="800275" depart="638" departPos="random">
        <walk route="o"/>
    </person>
    <person id="800276" depart="639" departPos="random">
        <walk route="a"/>
    </person>
    <person id="800277" depart="639" departPos="random">
        <walk route="i"/>
    </person>
    <person id="800278" depart="642" departPos="random">
        <walk route="k"/>
    </person>
    <person id="800279" depart="648" departPos="random">
        <walk route="k"/>
    </person>
    <person id="800280" depart="649" departPos="random">
        <walk route="c"/>
    </person>
    <person id="800281" depart="650" departPos="random">
        <walk route="c"/>
    </person>
    <person id="800282" depart="655" departPos="random">
        <walk route="c"/>
    </person>
    <person id="800283" depart="655" departPos="random">
        <walk route="k"/>
    </person>
    <person id="800284" depart="656" departPos="random">
        <walk route="k"/>
    </person>
    <person id="800285" depart="657" departPos="random">
        <walk route="a"/>
    </person>
    <person id="800286" depart="657" departPos="random">
        <walk route="i"/>
    </person>
    <person id="800287" depart="658" departPos="random">
        <walk route="i"/>
    </person>
    <person id="800288" depart="660" departPos="random">
        <walk route="k"/>
    </person>
    <person id="800289" depart="661" departPos="random">
        <walk route="c"/>
    </person>
    <person id="800290" depart="661" departPos="random">
        <walk route="i"/>
    </person>
    <person id="800291" depart="667" departPos="random">
        <walk route="a"/>
    </person>
    <person id="800292" depart="668" departPos="random">
        <walk route="g"/>
    </person>
    <person id="800293" depart="671" departPos="random">
        <walk route="i"/>
    </person>
    <person id="800294" depart="672" departPos="random">
        <walk route="c"/>
    </person>
    <person id="800295" depart="673" departPos="random">
        <walk route="c"/>
    </person>
    <person id="800296" depart="677" departPos="random">
        <walk route="i"/>
    </person>
    <person id="800297" depart="681" departPos="random">
        <walk route="c"/>
    </person>
    <person id="800298" depart="681" departPos="random">
        <walk route="k"/>
    </person>
    <person id="800299" depart="685" departPos="random">
        <walk route="c"/>
    </person>
    <person id="800300" depart="685" departPos="random">
        <walk route="g"/>
    </person>
    <person id="800301" depart="686" departPos="random">
        <walk route="a"/>
    </person>
    <person id="800302" depart="687" departPos="random">
        <walk route="c"/>
    </person>
    <person id="800303" depart="690" departPos="random">