<routes>

            <vType id="Berliner" accel="0.5" decel="1.0" sigma="0.5" length="0.5" maxSpeed="1.5" minGap="1.0" color="255,165,0" guiShape="pedestrian"  width ="0.5" vClass="pedestrian"/>  

            <route id="a" edges="a_3 3_6"/>
            <route id="c" edges="6_3 3_a"/>
            <route id="e" edges="c_3 3_d"/>
            <route id="g" edges="d_3 3_c"/>
            <route id="i" edges="3_6 6_b"/>
            <route id="k" edges="b_6 6_3"/>
            <route id="m" edges="e_6 6_f"/>
            <route id="o" edges="f_6 6_e"/>
                        
        
    <person id="800000" depart="1" departPos="random">
        <walk route="m"/>
    </person>
    <person id="800001" depart="2" departPos="random">
        <walk route="k"/>
    </person>
    <person id="800002" depart="4" departPos="random">
        <walk route="i"/>
    </person>
    <person id="800003" depart="9" departPos="random">
        <walk route="o"/>
    </person>
    <person id="800004" depart="10" departPos="random">
        <walk route="c"/>
    </person>
    <person id="800005" depart="10" departPos="random">
        <walk route="m"/>
    </person>
    <person id="800006" depart="14" departPos="random">
        <walk route="a"/>
    </person>
    <person id="800007" depart="18" departPos="random">
        <walk route="i"/>
    </person>
    <person id="800008" depart="19" departPos="random">
        <walk route="e"/>
    </person>
    <person id="800009" depart="20" departPos="random">
        <walk route="a"/>
    </person>
    <person id="800010" depart="20" departPos="random">
        <walk route="c"/>
    </person>
    <person id="800011" depart="20" departPos="random">
        <walk route="i"/>
    </person>
    <person id="800012" depart="22" departPos="random">
        <walk route="a"/>
    </person>
    <person id="800013" depart="22" departPos="random">
        <walk route="k"/>
    </person>
    <person id="800014" depart="23" departPos="random">
        <walk route="g"/>
    </person>
    <person id="800015" depart="25" departPos="random">
        <walk route="g"/>
    </person>
    <person id="800016" depart="26" departPos="random">
        <walk route="c"/>
    </person>
    <person id="800017" depart="28" departPos="random">
        <walk route="i"/>
    </person>
    <person id="800018" depart="29" departPos="random">
        <walk route="a"/>
    </person>
    <person id="800019" depart="32" departPos="random">
        <walk route="i"/>
    </person>
    <person id="800020" depart="32" departPos="random">
        <walk route="k"/>
    </person>
    <person id="800021" depart="39" departPos="random">
        <walk route="i"/>
    </person>
    <person id="800022" depart="40" departPos="random">
        <walk route="m"/>
    </person>
    <person id="800023" depart="41" departPos="random">
        <walk route="i"/>
    </person>
    <person id="800024" depart="45" departPos="random">
        <walk route="k"/>
    </person>
    <person id="800025" depart="46" departPos="random">
        <walk route="k"/>
    </person>
    <person id="800026" depart="47" departPos="random">
        <walk route="g"/>
    </person>
    <person id="800027" depart="50" departPos="random">
        <walk route="e"/>
    </person>
    <person id="800028" depart="50" departPos="random">
        <walk route="g"/>
    </person>
    <person id="800029" depart="54" departPos="random">
        <walk route="i"/>
    </person>
    <person id="800030" depart="55" departPos="random">
        <walk route="c"/>
    </person>
    <person id="800031" depart="56" departPos="random">
        <walk route="e"/>
    </person>
    <person id="800032" depart="57" departPos="random">
        <walk route="k"/>
    </person>
    <person id="800033" depart="60" departPos="random">
        <walk route="o"/>
    </person>
    <person id="800034" depart="64" departPos="random">
        <walk route="a"/>
    </person>
    <person id="800035" depart="64" departPos="random">
        <walk route="k"/>
    </person>
    <person id="800036" depart="65" departPos="random">
        <walk route="g"/>
    </person>
    <person id="800037" depart="67" departPos="random">
        <walk route="c"/>
    </person>
    <person id="800038" depart="68" departPos="random">
        <walk route="a"/>
    </person>
    <person id="800039" depart="68" departPos="random">
        <walk route="i"/>
    </person>
    <person id="800040" depart="69" departPos="random">
        <walk route="m"/>
    </person>
    <person id="800041" depart="73" departPos="random">
        <walk route="a"/>
    </person>
    <person id="800042" depart="73" departPos="random">
        <walk route="c"/>
    </person>
    <person id="800043" depart="73" departPos="random">
        <walk route="k"/>
    </person>
    <person id="800044" depart="78" departPos="random">
        <walk route="c"/>
    </person>
    <person id="800045" depart="78" departPos="random">
        <walk route="i"/>
    </person>
    <person id="800046" depart="78" departPos="random">
        <walk route="k"/>
    </person>
    <person id="800047" depart="79" departPos="random">
        <walk route="i"/>
    </person>
    <person id="800048" depart="83" departPos="random">
        <walk route="g"/>
    </person>
    <person id="800049" depart="84" departPos="random">
        <walk route="i"/>
    </person>
    <person id="800050" depart="84" departPos="random">
        <walk route="k"/>
    </person>
    <person id="800051" depart="86" departPos="random">
        <walk route="i"/>
    </person>
    <person id="800052" depart="87" departPos="random">
        <walk route="k"/>
    </person>
    <person id="800053" depart="89" departPos="random">
        <walk route="c"/>
    </person>
    <person id="800054" depart="89" departPos="random">
        <walk route="k"/>
    </person>
    <person id="800055" depart="90" departPos="random">
        <walk route="e"/>
    </person>
    <person id="800056" depart="90" departPos="random">
        <walk route="i"/>
    </person>
    <person id="800057" depart="90" departPos="random">
        <walk route="o"/>
    </person>
    <person id="800058" depart="93" departPos="random">
        <walk route="i"/>
    </person>
    <person id="800059" depart="95" departPos="random">
        <walk route="k"/>
    </person>
    <person id="800060" depart="96" departPos="random">
        <walk route="i"/>
    </person>
    <person id="800061" depart="100" departPos="random">
        <walk route="c"/>
    </person>
    <person id="800062" depart="101" departPos="random">
        <walk route="c"/>
    </person>
    <person id="800063" depart="103" departPos="random">
        <walk route="o"/>
    </person>
    <person id="800064" depart="105" departPos="random">
        <walk route="a"/>
    </person>
    <person id="800065" depart="110" departPos="random">
        <walk route="k"/>
    </person>
    <person id="800066" depart="112" departPos="random">
        <walk route="a"/>
    </person>
    <person id="800067" depart="114" departPos="random">
        <walk route="a"/>
    </person>
    <person id="800068" depart="116" departPos="random">
        <walk route="a"/>
    </person>
    <person id="800069" depart="116" departPos="random">
        <walk route="c"/>
    </person>
    <person id="800070" depart="117" departPos="random">
        <walk route="a"/>
    </person>
    <person id="800071" depart="117" departPos="random">
        <walk route="c"/>
    </person>
    <person id="800072" depart="119" departPos="random">
        <walk route="k"/>
    </person>
    <person id="800073" depart="120" departPos="random">
        <walk route="o"/>
    </person>
    <person id="800074" depart="121" departPos="random">
        <walk route="k"/>
    </person>
    <person id="800075" depart="123" departPos="random">
        <walk route="m"/>
    </person>
    <person id="800076" depart="124" departPos="random">
        <walk route="k"/>
    </person>
    <person id="800077" depart="126" departPos="random">
        <walk route="c"/>
    </person>
    <person id="800078" depart="129" departPos="random">
        <walk route="a"/>
    </person>
    <person id="800079" depart="129" departPos="random">
        <walk route="i"/>
    </person>
    <person id="800080" depart="131" departPos="random">
        <walk route="k"/>
    </person>
    <person id="800081" depart="132" departPos="random">
        <walk route="i"/>
    </person>
    <person id="800082" depart="135" departPos="random">
        <walk route="a"/>
    </person>
    <person id="800083" depart="135" departPos="random">
        <walk route="g"/>
    </person>
    <person id="800084" depart="135" departPos="random">
        <walk route="i"/>
    </person>
    <person id="800085" depart="136" departPos="random">
        <walk route="e"/>
    </person>
    <person id="800086" depart="138" departPos="random">
        <walk route="c"/>
    </person>
    <person id="800087" depart="139" departPos="random">
        <walk route="k"/>
    </person>
    <person id="800088" depart="140" departPos="random">
        <walk route="k"/>
    </person>
    <person id="800089" depart="141" departPos="random">
        <walk route="a"/>
    </person>
    <person id="800090" depart="143" departPos="random">
        <walk route="c"/>
    </person>
    <person id="800091" depart="145" departPos="random">
        <walk route="a"/>
    </person>
    <person id="800092" depart="145" departPos="random">
        <walk route="i"/>
    </person>
    <person id="800093" depart="146" departPos="random">
        <walk route="o"/>
    </person>
    <person id="800094" depart="151" departPos="random">
        <walk route="e"/>
    </person>
    <person id="800095" depart="152" departPos="random">
        <walk route="e"/>
    </person>
    <person id="800096" depart="152" departPos="random">
        <walk route="m"/>
    </person>
    <person id="800097" depart="154" departPos="random">
        <walk route="k"/>
    </person>
    <person id="800098" depart="155" departPos="random">
        <walk route="a"/>
    </person>
    <person id="800099" depart="156" departPos="random">
        <walk route="i"/>
    </person>
    <person id="800100" depart="161" departPos="random">
        <walk route="e"/>
    </person>
    <person id="800101" depart="164" departPos="random">
        <walk route="a"/>
    </person>
    <person id="800102" depart="167" departPos="random">
        <walk route="i"/>
    </person>
    <person id="800103" depart="169" departPos="random">
        <walk route="e"/>
    </person>
    <person id="800104" depart="169" departPos="random">
        <walk route="i"/>
    </person>
    <person id="800105" depart="173" departPos="random">
        <walk route="g"/>
    </person>
    <person id="800106" depart="176" departPos="random">
        <walk route="i"/>
    </person>
    <person id="800107" depart="177" departPos="random">
        <walk route="c"/>
    </person>
    <person id="800108" depart="177" departPos="random">
        <walk route="e"/>
    </person>
    <person id="800109" depart="183" departPos="random">
        <walk route="a"/>
    </person>
    <person id="800110" depart="183" departPos="random">
        <walk route="k"/>
    </person>
    <person id="800111" depart="185" departPos="random">
        <walk route="k"/>
    </person>
    <person id="800112" depart="187" departPos="random">
        <walk route="a"/>
    </person>
    <person id="800113" depart="187" departPos="random">
        <walk route="k"/>
    </person>
    <person id="800114" depart="188" departPos="random">
        <walk route="a"/>
    </person>
    <person id="800115" depart="188" departPos="random">
        <walk route="k"/>
    </person>
    <person id="800116" depart="189" departPos="random">
        <walk route="a"/>
    </person>
    <person id="800117" depart="190" departPos="random">
        <walk route="k"/>
    </person>
    <person id="800118" depart="193" departPos="random">
        <walk route="i"/>
    </person>
    <person id="800119" depart="198" departPos="random">
        <walk route="c"/>
    </person>
    <person id="800120" depart="198" departPos="random">
        <walk route="e"/>
    </person>
    <person id="800121" depart="200" departPos="random">
        <walk route="c"/>
    </person>
    <person id="800122" depart="201" departPos="random">
        <walk route="i"/>
    </person>
    <person id="800123" depart="203" departPos="random">
        <walk route="a"/>
    </person>
    <person id="800124" depart="203" departPos="random">
        <walk route="c"/>
    </person>
    <person id="800125" depart="209" departPos="random">
        <walk route="a"/>
    </person>
    <person id="800126" depart="209" departPos="random">
        <walk route="i"/>
    </person>
    <person id="800127" depart="211" departPos="random">
        <walk route="a"/>
    </person>
    <person id="800128" depart="212" departPos="random">
        <walk route="o"/>
    </person>
    <person id="800129" depart="213" departPos="random">
        <walk route="i"/>
    </person>
    <person id="800130" depart="215" departPos="random">
        <walk route="c"/>
    </person>
    <person id="800131" depart="224" departPos="random">
        <walk route="i"/>
    </person>
    <person id="800132" depart="225" departPos="random">
        <walk route="c"/>
    </person>
    <person id="800133" depart="227" departPos="random">
        <walk route="k"/>
    </person>
    <person id="800134" depart="229" departPos="random">
        <walk route="a"/>
    </person>
    <person id="800135" depart="235" departPos="random">
        <walk route="g"/>
    </person>
    <person id="800136" depart="237" departPos="random">
        <walk route="c"/>
    </person>
    <person id="800137" depart="237" departPos="random">
        <walk route="o"/>
    </person>
    <person id="800138" depart="239" departPos="random">
        <walk route="e"/>
    </person>
    <person id="800139" depart="245" departPos="random">
        <walk route="i"/>
    </person>
    <person id="800140" depart="246" departPos="random">
        <walk route="a"/>
    </person>
    <person id="800141" depart="247" departPos="random">
        <walk route="e"/>
    </person>
    <person id="800142" depart="248" departPos="random">
        <walk route="a"/>
    </person>
    <person id="800143" depart="249" departPos="random">
        <walk route="k"/>
    </person>
    <person id="800144" depart="250" departPos="random">
        <walk route="k"/>
    </person>
    <person id="800145" depart="253" departPos="random">
        <walk route="c"/>
    </person>
    <person id="800146" depart="255" departPos="random">
        <walk route="o"/>
    </person>
    <person id="800147" depart="257" departPos="random">
        <walk route="a"/>
    </person>
    <person id="800148" depart="257" departPos="random">
        <walk route="g"/>
    </person>
    <person id="800149" depart="259" departPos="random">
        <walk route="i"/>
    </person>
    <person id="800150" depart="261" departPos="random">
        <walk route="a"/>
    </person>
    <person id="800151" depart="262" departPos="random">
        <walk route="i"/>
    </person>
    <person id="800152" depart="263" departPos="random">
        <walk route="g"/>
    </person>
    <person id="800153" depart="263" departPos="random">
        <walk route="i"/>
    </person>
    <person id="800154" depart="269" departPos="random">
        <walk route="i"/>
    </person>
    <person id="800155" depart="270" departPos="random">
        <walk route="e"/>
    </person>
    <person id="800156" depart="270" departPos="random">
        <walk route="o"/>
    </person>
    <person id="800157" depart="276" departPos="random">
        <walk route="c"/>
    </person>
    <person id="800158" depart="281" departPos="random">
        <walk route="i"/>
    </person>
    <person id="800159" depart="282" departPos="random">
        <walk route="o"/>
    </person>
    <person id="800160" depart="287" departPos="random">
        <walk route="e"/>
    </person>
    <person id="800161" depart="287" departPos="random">
        <walk route="k"/>
    </person>
    <person id="800162" depart="288" departPos="random">
        <walk route="i"/>
    </person>
    <person id="800163" depart="292" departPos="random">
        <walk route="c"/>
    </person>
    <person id="800164" depart="297" departPos="random">
        <walk route="c"/>
    </person>
    <person id="800165" depart="300" departPos="random">
        <walk route="c"/>
    </person>
    <person id="800166" depart="300" departPos="random">
        <walk route="o"/>
    </person>
    <person id="800167" depart="301" departPos="random">
        <walk route="i"/>
    </person>
    <person id="800168" depart="302" departPos="random">
        <walk route="g"/>
    </person>
    <person id="800169" depart="303" departPos="random">
        <walk route="i"/>
    </person>
    <person id="800170" depart="306" departPos="random">
        <walk route="a"/>
    </person>
    <person id="800171" depart="306" departPos="random">
        <walk route="c"/>
    </person>
    <person id="800172" depart="308" departPos="random">
        <walk route="k"/>
    </person>
    <person id="800173" depart="310" departPos="random">
        <walk route="c"/>
    </person>
    <person id="800174" depart="310" departPos="random">
        <walk route="i"/>
    </person>
    <person id="800175" depart="315" departPos="random">
        <walk route="c"/>
    </person>
    <person id="800176" depart="322" departPos="random">
        <walk route="c"/>
    </person>
    <person id="800177" depart="323" departPos="random">
        <walk route="c"/>
    </person>
    <person id="800178" depart="323" departPos="random">
        <walk route="k"/>
    </person>
    <person id="800179" depart="325" departPos="random">
        <walk route="g"/>
    </person>
    <person id="800180" depart="328" departPos="random">
        <walk route="c"/>
    </person>
    <person id="800181" depart="330" departPos="random">
        <walk route="a"/>
    </person>
    <person id="800182" depart="333" departPos="random">
        <walk route="k"/>
    </person>
    <person id="800183" depart="337" departPos="random">
        <walk route="k"/>
    </person>
    <person id="800184" depart="338" departPos="random">
        <walk route="k"/>
    </person>
    <person id="800185" depart="339" departPos="random">
        <walk route="g"/>
    </person>
    <person id="800186" depart="340" departPos="random">
        <walk route="a"/>
    </person>
    <person id="800187" depart="344" departPos="random">
        <walk route="k"/>
    </person>
    <person id="800188" depart="345" departPos="random">
        <walk route="a"/>
    </person>
    <person id="800189" depart="347" departPos="random">
        <walk route="i"/>
    </person>
    <person id="800190" depart="350" departPos="random">
        <walk route="a"/>
    </person>
    <person id="800191" depart="350" departPos="random">
        <walk route="c"/>
    </person>
    <person id="800192" depart="350" departPos="random">
        <walk route="m"/>
    </person>
    <person id="800193" depart="351" departPos="random">
        <walk route="a"/>
    </person>
    <person id="800194" depart="353" departPos="random">
        <walk route="c"/>
    </person>
    <person id="800195" depart="353" departPos="random">
        <walk route="o"/>
    </person>
    <person id="800196" depart="359" departPos="random">
        <walk route="i"/>
    </person>
    <person id="800197" depart="360" departPos="random">
        <walk route="i"/>
    </person>
    <person id="800198" depart="364" departPos="random">
        <walk route="k"/>
    </person>
    <person id="800199" depart="365" departPos="random">
        <walk route="i"/>
    </person>
    <person id="800200" depart="369" departPos="random">
        <walk route="c"/>
    </person>
    <person id="800201" depart="374" departPos="random">
        <walk route="i"/>
    </person>
    <person id="800202" depart="376" departPos="random">
        <walk route="k"/>
    </person>
    <person id="800203" depart="377" departPos="random">
        <walk route="i"/>
    </person>
    <person id="800204" depart="377" departPos="random">
        <walk route="k"/>
    </person>
    <person id="800205" depart="379" departPos="random">
        <walk route="k"/>
    </person>
    <person id="800206" depart="381" departPos="random">
        <walk route="k"/>
    </person>
    <person id="800207" depart="384" departPos="random">
        <walk route="e"/>
    </person>
    <person id="800208" depart="388" departPos="random">
        <walk route="a"/>
    </person>
    <person id="800209" depart="389" departPos="random">
        <walk route="i"/>
    </person>
    <person id="800210" depart="389" departPos="random">
        <walk route="k"/>
    </person>
    <person id="800211" depart="390" departPos="random">
        <walk route="o"/>
    </person>
    <person id="800212" depart="394" departPos="random">
        <walk route="a"/>
    </person>
    <person id="800213" depart="397" departPos="random">
        <walk route="a"/>
    </person>
    <person id="800214" depart="398" departPos="random">
        <walk route="i"/>
    </person>
    <person id="800215" depart="399" departPos="random">
        <walk route="k"/>
    </person>
    <person id="800216" depart="400" departPos="random">
        <walk route="c"/>
    </person>
    <person id="800217" depart="400" departPos="random">
        <walk route="k"/>
    </person>
    <person id="800218" depart="404" departPos="random">
        <walk route="i"/>
    </person>
    <person id="800219" depart="405" departPos="random">
        <walk route="i"/>
    </person>
    <person id="800220" depart="406" departPos="random">
        <walk route="k"/>
    </person>
    <person id="800221" depart="407" departPos="random">
        <walk route="k"/>
    </person>
    <person id="800222" depart="409" departPos="random">
        <walk route="a"/>
    </person>
    <person id="800223" depart="411" departPos="random">
        <walk route="k"/>
    </person>
    <person id="800224" depart="412" departPos="random">
        <walk route="c"/>
    </person>
    <person id="800225" depart="412" departPos="random">
        <walk route="k"/>
    </person>
    <person id="800226" depart="414" departPos="random">
        <walk route="c"/>
    </person>
    <person id="800227" depart="414" departPos="random">
        <walk route="g"/>
    </person>
    <person id="800228" depart="416" departPos="random">
        <walk route="a"/>
    </person>
    <person id="800229" depart="421" departPos="random">
        <walk route="i"/>
    </person>
    <person id="800230" depart="423" departPos="random">
        <walk route="c"/>
    </person>
    <person id="800231" depart="423" departPos="random">
        <walk route="k"/>
    </person>
    <person id="800232" depart="427" departPos="random">
        <walk route="k"/>
    </person>
    <person id="800233" depart="429" departPos="random">
        <walk route="a"/>
    </person>
    <person id="800234" depart="430" departPos="random">
        <walk route="c"/>
    </person>
    <person id="800235" depart="431" departPos="random">
        <walk route="i"/>
    </person>
    <person id="800236" depart="434" departPos="random">
        <walk route="m"/>
    </person>
    <person id="800237" depart="436" departPos="random">
        <walk route="a"/>
    </person>
    <person id="800238" depart="437" departPos="random">
        <walk route="g"/>
    </person>
    <person id="800239" depart="444" departPos="random">
        <walk route="k"/>
    </person>
    <person id="800240" depart="444" departPos="random">
        <walk route="m"/>
    </person>
    <person id="800241" depart="446" departPos="random">
        <walk route="a"/>
    </person>
    <person id="800242" depart="447" departPos="random">
        <walk route="k"/>
    </person>
    <person id="800243" depart="447" departPos="random">
        <walk route="o"/>
    </person>
    <person id="800244" depart="455" departPos="random">
        <walk route="c"/>
    </person>
    <person id="800245" depart="457" departPos="random">
        <walk route="a"/>
    </person>
    <person id="800246" depart="457" departPos="random">
        <walk route="c"/>
    </person>
    <person id="800247" depart="457" departPos="random">
        <walk route="k"/>
    </person>
    <person id="800248" depart="458" departPos="random">
        <walk route="c"/>
    </person>
    <person id="800249" depart="459" departPos="random">
        <walk route="a"/>
    </person>
    <person id="800250" depart="459" departPos="random">
        <walk route="i"/>
    </person>
    <person id="800251" depart="460" departPos="random">
        <walk route="k"/>
    </person>
    <person id="800252" depart="461" departPos="random">
        <walk route="a"/>
    </person>
    <person id="800253" depart="463" departPos="random">
        <walk route="c"/>
    </person>
    <person id="800254" depart="469" departPos="random">
        <walk route="a"/>
    </person>
    <person id="800255" depart="470" departPos="random">
        <walk route="c"/>
    </person>
    <person id="800256" depart="474" departPos="random">
        <walk route="i"/>
    </person>
    <person id="800257" depart="475" departPos="random">
        <walk route="g"/>
    </person>
    <person id="800258" depart="475" departPos="random">
        <walk route="i"/>
    </person>
    <person id="800259" depart="482" departPos="random">
        <walk route="a"/>
    </person>
    <person id="800260" depart="488" departPos="random">
        <walk route="a"/>
    </person>
    <person id="800261" depart="488" departPos="random">
        <walk route="c"/>
    </person>
    <person id="800262" depart="489" departPos="random">
        <walk route="k"/>
    </person>
    <person id="800263" depart="494" departPos="random">
        <walk route="g"/>
    </person>
    <person id="800264" depart="498" departPos="random">
        <walk route="k"/>
    </person>
    <person id="800265" depart="499" departPos="random">
        <walk route="a"/>
    </person>
    <person id="800266" depart="499" departPos="random">
        <walk route="i"/>
    </person>
    <person id="800267" depart="501" departPos="random">
        <walk route="i"/>
    </person>
    <person id="800268" depart="505" departPos="random">
        <walk route="o"/>
    </person>
    <person id="800269" depart="507" departPos="random">
        <walk route="a"/>
    </person>
    <person id="800270" depart="509" departPos="random">
        <walk route="k"/>
    </person>
    <person id="800271" depart="510" departPos="random">
        <walk route="a"/>
    </person>
    <person id="800272" depart="510" departPos="random">
        <walk route="c"/>
    </person>
    <person id="800273" depart="512" departPos="random">
        <walk route="i"/>
    </person>
    <person id="800274" depart="513" departPos="random">
        <walk route="a"/>
    </person>
    <person id="800275" depart="515" departPos="random">
        <walk route="a"/>
    </person>
    <person id="800276" depart="520" departPos="random">
        <walk route="a"/>
    </person>
    <person id="800277" depart="520" departPos="random">
        <walk route="c"/>
    </person>
    <person id="800278" depart="521" departPos="random">
        <walk route="i"/>
    </person>
    <person id="800279" depart="523" departPos="random">
        <walk route="a"/>
    </person>
    <person id="800280" depart="523" departPos="random">
        <walk route="k"/>
    </person>
    <person id="800281" depart="524" departPos="random">
        <walk route="i"/>
    </person>
    <person id="800282" depart="524" departPos="random">
        <walk route="k"/>
    </person>
    <person id="800283" depart="526" departPos="random">
        <walk route="c"/>
    </person>
    <person id="800284" depart="526" departPos="random">
        <walk route="k"/>
    </person>
    <person id="800285" depart="529" departPos="random">
        <walk route="o"/>
    </person>
    <person id="800286" depart="533" departPos="random">
        <walk route="a"/>
    </person>
    <person id="800287" depart="534" departPos="random">
        <walk route="k"/>
    </person>
    <person id="800288" depart="536" departPos="random">
        <walk route="c"/>
    </person>
    <person id="800289" depart="536" departPos="random">
        <walk route="i"/>
    </person>
    <person id="800290" depart="540" departPos="random">
        <walk route="k"/>
    </person>
    <person id="800291" depart="540" departPos="random">
        <walk route="o"/>
    </person>
    <person id="800292" depart="543" departPos="random">
        <walk route="a"/>
    </person>
    <person id="800293" depart="543" departPos="random">
        <walk route="i"/>
    </person>
    <person id="800294" depart="544" departPos="random">
        <walk route="a"/>
    </person>
    <person id="800295" depart="544" departPos="random">
        <walk route="m"/>
    </person>
    <person id="800296" depart="545" departPos="random">
        <walk route="c"/>
    </person>
    <person id="800297" depart="546" departPos="random">
        <walk route="a"/>
    </person>
    <person id="800298" depart="546" departPos="random">
        <walk route="i"/>
    </person>
    <person id="800299" depart="548" departPos="random">
        <walk route="c"/>
    </person>
    <person id="800300" depart="550" departPos="random">
        <walk route="c"/>
    </person>
    <person id="800301" depart="553" departPos="random">
        <walk route="i"/>
    </person>
    <person id="800302" depart="554" departPos="random">
        <walk route="i"/>
    </person>
    <person id="800303" depart="555" departPos="random">
        <walk route="e"/>