<routes>

            <vType id="Berliner" accel="0.5" decel="1.0" sigma="0.5" length="0.5" maxSpeed="1.5" minGap="1.0" color="255,165,0" guiShape="pedestrian"  width ="0.5" vClass="pedestrian"/>  

            <route id="a" edges="a_3 3_6"/>
            <route id="c" edges="6_3 3_a"/>
            <route id="e" edges="c_3 3_d"/>
            <route id="g" edges="d_3 3_c"/>
            <route id="i" edges="3_6 6_b"/>
            <route id="k" edges="b_6 6_3"/>
            <route id="m" edges="e_6 6_f"/>
            <route id="o" edges="f_6 6_e"/>
                        
        
    <person id="800000" depart="0" departPos="random">
        <walk route="e"/>
    </person>
    <person id="800001" depart="0" departPos="random">
        <walk route="i"/>
    </person>
    <person id="800002" depart="1" departPos="random">
        <walk route="m"/>
    </person>
    <person id="800003" depart="3" departPos="random">
        <walk route="a"/>
    </person>
    <person id="800004" depart="4" departPos="random">
        <walk route="o"/>
    </person>
    <person id="800005" depart="8" departPos="random">
        <walk route="c"/>
    </person>
    <person id="800006" depart="9" departPos="random">
        <walk route="e"/>
    </person>
    <person id="800007" depart="14" departPos="random">
        <walk route="e"/>
    </person>
    <person id="800008" depart="16" departPos="random">
        <walk route="c"/>
    </person>
    <person id="800009" depart="17" departPos="random">
        <walk route="k"/>
    </person>
    <person id="800010" depart="18" departPos="random">
        <walk route="c"/>
    </person>
    <person id="800011" depart="19" departPos="random">
        <walk route="k"/>
    </person>
    <person id="800012" depart="20" departPos="random">
        <walk route="i"/>
    </person>
    <person id="800013" depart="24" departPos="random">
        <walk route="k"/>
    </person>
    <person id="800014" depart="27" departPos="random">
        <walk route="i"/>
    </person>
    <person id="800015" depart="30" departPos="random">
        <walk route="c"/>
    </person>
    <person id="800016" depart="32" departPos="random">
        <walk route="c"/>
    </person>
    <person id="800017" depart="32" departPos="random">
        <walk route="i"/>
    </person>
    <person id="800018" depart="34" departPos="random">
        <walk route="k"/>
    </person>
    <person id="800019" depart="36" departPos="random">
        <walk route="k"/>
    </person>
    <person id="800020" depart="37" departPos="random">
        <walk route="c"/>
    </person>
    <person id="800021" depart="37" departPos="random">
        <walk route="i"/>
    </person>
    <person id="800022" depart="39" departPos="random">
        <walk route="m"/>
    </person>
    <person id="800023" depart="40" departPos="random">
        <walk route="i"/>
    </person>
    <person id="800024" depart="42" departPos="random">
        <walk route="m"/>
    </person>
    <person id="800025" depart="45" departPos="random">
        <walk route="o"/>
    </person>
    <person id="800026" depart="46" departPos="random">
        <walk route="i"/>
    </person>
    <person id="800027" depart="50" departPos="random">
        <walk route="k"/>
    </person>
    <person id="800028" depart="55" departPos="random">
        <walk route="k"/>
    </person>
    <person id="800029" depart="59" departPos="random">
        <walk route="g"/>
    </person>
    <person id="800030" depart="61" departPos="random">
        <walk route="a"/>
    </person>
    <person id="800031" depart="61" departPos="random">
        <walk route="c"/>
    </person>
    <person id="800032" depart="61" departPos="random">
        <walk route="i"/>
    </person>
    <person id="800033" depart="64" departPos="random">
        <walk route="a"/>
    </person>
    <person id="800034" depart="73" departPos="random">
        <walk route="i"/>
    </person>
    <person id="800035" depart="74" departPos="random">
        <walk route="a"/>
    </person>
    <person id="800036" depart="74" departPos="random">
        <walk route="c"/>
    </person>
    <person id="800037" depart="75" departPos="random">
        <walk route="c"/>
    </person>
    <person id="800038" depart="76" departPos="random">
        <walk route="c"/>
    </person>
    <person id="800039" depart="79" departPos="random">
        <walk route="i"/>
    </person>
    <person id="800040" depart="82" departPos="random">
        <walk route="a"/>
    </person>
    <person id="800041" depart="84" departPos="random">
        <walk route="c"/>
    </person>
    <person id="800042" depart="86" departPos="random">
        <walk route="a"/>
    </person>
    <person id="800043" depart="86" departPos="random">
        <walk route="c"/>
    </person>
    <person id="800044" depart="87" departPos="random">
        <walk route="c"/>
    </person>
    <person id="800045" depart="87" departPos="random">
        <walk route="m"/>
    </person>
    <person id="800046" depart="89" departPos="random">
        <walk route="k"/>
    </person>
    <person id="800047" depart="96" departPos="random">
        <walk route="a"/>
    </person>
    <person id="800048" depart="103" departPos="random">
        <walk route="c"/>
    </person>
    <person id="800049" depart="104" departPos="random">
        <walk route="i"/>
    </person>
    <person id="800050" depart="106" departPos="random">
        <walk route="a"/>
    </person>
    <person id="800051" depart="110" departPos="random">
        <walk route="i"/>
    </person>
    <person id="800052" depart="113" departPos="random">
        <walk route="i"/>
    </person>
    <person id="800053" depart="114" departPos="random">
        <walk route="o"/>
    </person>
    <person id="800054" depart="117" departPos="random">
        <walk route="c"/>
    </person>
    <person id="800055" depart="119" departPos="random">
        <walk route="e"/>
    </person>
    <person id="800056" depart="121" departPos="random">
        <walk route="c"/>
    </person>
    <person id="800057" depart="121" departPos="random">
        <walk route="k"/>
    </person>
    <person id="800058" depart="124" departPos="random">
        <walk route="i"/>
    </person>
    <person id="800059" depart="125" departPos="random">
        <walk route="m"/>
    </person>
    <person id="800060" depart="127" departPos="random">
        <walk route="i"/>
    </person>
    <person id="800061" depart="127" departPos="random">
        <walk route="k"/>
    </person>
    <person id="800062" depart="128" departPos="random">
        <walk route="c"/>
    </person>
    <person id="800063" depart="131" departPos="random">
        <walk route="m"/>
    </person>
    <person id="800064" depart="135" departPos="random">
        <walk route="c"/>
    </person>
    <person id="800065" depart="137" departPos="random">
        <walk route="i"/>
    </person>
    <person id="800066" depart="140" departPos="random">
        <walk route="k"/>
    </person>
    <person id="800067" depart="143" departPos="random">
        <walk route="k"/>
    </person>
    <person id="800068" depart="146" departPos="random">
        <walk route="e"/>
    </person>
    <person id="800069" depart="148" departPos="random">
        <walk route="c"/>
    </person>
    <person id="800070" depart="148" departPos="random">
        <walk route="k"/>
    </person>
    <person id="800071" depart="149" departPos="random">
        <walk route="i"/>
    </person>
    <person id="800072" depart="151" departPos="random">
        <walk route="c"/>
    </person>
    <person id="800073" depart="156" departPos="random">
        <walk route="k"/>
    </person>
    <person id="800074" depart="157" departPos="random">
        <walk route="g"/>
    </person>
    <person id="800075" depart="157" departPos="random">
        <walk route="o"/>
    </person>
    <person id="800076" depart="158" departPos="random">
        <walk route="c"/>
    </person>
    <person id="800077" depart="158" departPos="random">
        <walk route="i"/>
    </person>
    <person id="800078" depart="160" departPos="random">
        <walk route="a"/>
    </person>
    <person id="800079" depart="161" departPos="random">
        <walk route="g"/>
    </person>
    <person id="800080" depart="161" departPos="random">
        <walk route="k"/>
    </person>
    <person id="800081" depart="162" departPos="random">
        <walk route="c"/>
    </person>
    <person id="800082" depart="165" departPos="random">
        <walk route="a"/>
    </person>
    <person id="800083" depart="168" departPos="random">
        <walk route="a"/>
    </person>
    <person id="800084" depart="173" departPos="random">
        <walk route="i"/>
    </person>
    <person id="800085" depart="179" departPos="random">
        <walk route="k"/>
    </person>
    <person id="800086" depart="181" departPos="random">
        <walk route="o"/>
    </person>
    <person id="800087" depart="182" departPos="random">
        <walk route="i"/>
    </person>
    <person id="800088" depart="183" departPos="random">
        <walk route="a"/>
    </person>
    <person id="800089" depart="188" departPos="random">
        <walk route="i"/>
    </person>
    <person id="800090" depart="192" departPos="random">
        <walk route="c"/>
    </person>
    <person id="800091" depart="193" departPos="random">
        <walk route="k"/>
    </person>
    <person id="800092" depart="194" departPos="random">
        <walk route="c"/>
    </person>
    <person id="800093" depart="199" departPos="random">
        <walk route="o"/>
    </person>
    <person id="800094" depart="204" departPos="random">
        <walk route="c"/>
    </person>
    <person id="800095" depart="208" departPos="random">
        <walk route="i"/>
    </person>
    <person id="800096" depart="209" departPos="random">
        <walk route="a"/>
    </person>
    <person id="800097" depart="211" departPos="random">
        <walk route="c"/>
    </person>
    <person id="800098" depart="215" departPos="random">
        <walk route="e"/>
    </person>
    <person id="800099" depart="217" departPos="random">
        <walk route="k"/>
    </person>
    <person id="800100" depart="218" departPos="random">
        <walk route="c"/>
    </person>
    <person id="800101" depart="221" departPos="random">
        <walk route="i"/>
    </person>
    <person id="800102" depart="227" departPos="random">
        <walk route="a"/>
    </person>
    <person id="800103" depart="229" departPos="random">
        <walk route="o"/>
    </person>
    <person id="800104" depart="230" departPos="random">
        <walk route="g"/>
    </person>
    <person id="800105" depart="231" departPos="random">
        <walk route="c"/>
    </person>
    <person id="800106" depart="234" departPos="random">
        <walk route="i"/>
    </person>
    <person id="800107" depart="236" departPos="random">
        <walk route="k"/>
    </person>
    <person id="800108" depart="237" departPos="random">
        <walk route="k"/>
    </person>
    <person id="800109" depart="239" departPos="random">
        <walk route="a"/>
    </person>
    <person id="800110" depart="240" departPos="random">
        <walk route="g"/>
    </person>
    <person id="800111" depart="250" departPos="random">
        <walk route="a"/>
    </person>
    <person id="800112" depart="255" departPos="random">
        <walk route="c"/>
    </person>
    <person id="800113" depart="256" departPos="random">
        <walk route="k"/>
    </person>
    <person id="800114" depart="259" departPos="random">
        <walk route="i"/>
    </person>
    <person id="800115" depart="263" departPos="random">
        <walk route="a"/>
    </person>
    <person id="800116" depart="265" departPos="random">
        <walk route="a"/>
    </person>
    <person id="800117" depart="265" departPos="random">
        <walk route="i"/>
    </person>
    <person id="800118" depart="265" departPos="random">
        <walk route="k"/>
    </person>
    <person id="800119" depart="266" departPos="random">
        <walk route="a"/>
    </person>
    <person id="800120" depart="271" departPos="random">
        <walk route="c"/>
    </person>
    <person id="800121" depart="272" departPos="random">
        <walk route="c"/>
    </person>
    <person id="800122" depart="273" departPos="random">
        <walk route="k"/>
    </person>
    <person id="800123" depart="279" departPos="random">
        <walk route="k"/>
    </person>
    <person id="800124" depart="280" departPos="random">
        <walk route="a"/>
    </person>
    <person id="800125" depart="284" departPos="random">
        <walk route="a"/>
    </person>
    <person id="800126" depart="285" departPos="random">
        <walk route="i"/>
    </person>
    <person id="800127" depart="286" departPos="random">
        <walk route="c"/>
    </person>
    <person id="800128" depart="286" departPos="random">
        <walk route="i"/>
    </person>
    <person id="800129" depart="287" departPos="random">
        <walk route="a"/>
    </person>
    <person id="800130" depart="288" departPos="random">
        <walk route="i"/>
    </person>
    <person id="800131" depart="289" departPos="random">
        <walk route="o"/>
    </person>
    <person id="800132" depart="290" departPos="random">
        <walk route="g"/>
    </person>
    <person id="800133" depart="292" departPos="random">
        <walk route="a"/>
    </person>
    <person id="800134" depart="293" departPos="random">
        <walk route="k"/>
    </person>
    <person id="800135" depart="296" departPos="random">
        <walk route="i"/>
    </person>
    <person id="800136" depart="299" departPos="random">
        <walk route="c"/>
    </person>
    <person id="800137" depart="302" departPos="random">
        <walk route="i"/>
    </person>
    <person id="800138" depart="305" departPos="random">
        <walk route="c"/>
    </person>
    <person id="800139" depart="305" departPos="random">
        <walk route="k"/>
    </person>
    <person id="800140" depart="305" departPos="random">
        <walk route="o"/>
    </person>
    <person id="800141" depart="308" departPos="random">
        <walk route="c"/>
    </person>
    <person id="800142" depart="311" departPos="random">
        <walk route="a"/>
    </person>
    <person id="800143" depart="313" departPos="random">
        <walk route="c"/>
    </person>
    <person id="800144" depart="320" departPos="random">
        <walk route="i"/>
    </person>
    <person id="800145" depart="321" departPos="random">
        <walk route="e"/>
    </person>
    <person id="800146" depart="326" departPos="random">
        <walk route="a"/>
    </person>
    <person id="800147" depart="327" departPos="random">
        <walk route="k"/>
    </person>
    <person id="800148" depart="331" departPos="random">
        <walk route="a"/>
    </person>
    <person id="800149" depart="331" departPos="random">
        <walk route="k"/>
    </person>
    <person id="800150" depart="333" departPos="random">
        <walk route="c"/>
    </person>
    <person id="800151" depart="343" departPos="random">
        <walk route="a"/>
    </person>
    <person id="800152" depart="343" departPos="random">
        <walk route="c"/>
    </person>
    <person id="800153" depart="343" departPos="random">
        <walk route="k"/>
    </person>
    <person id="800154" depart="345" departPos="random">
        <walk route="m"/>
    </person>
    <person id="800155" depart="346" departPos="random">
        <walk route="c"/>
    </person>
    <person id="800156" depart="349" departPos="random">
        <walk route="a"/>
    </person>
    <person id="800157" depart="349" departPos="random">
        <walk route="k"/>
    </person>
    <person id="800158" depart="353" departPos="random">
        <walk route="a"/>
    </person>
    <person id="800159" depart="354" departPos="random">
        <walk route="a"/>
    </person>
    <person id="800160" depart="355" departPos="random">
        <walk route="g"/>
    </person>
    <person id="800161" depart="357" departPos="random">
        <walk route="i"/>
    </person>
    <person id="800162" depart="362" departPos="random">
        <walk route="a"/>
    </person>
    <person id="800163" depart="364" departPos="random">
        <walk route="a"/>
    </person>
    <person id="800164" depart="364" departPos="random">
        <walk route="k"/>
    </person>
    <person id="800165" depart="370" departPos="random">
        <walk route="k"/>
    </person>
    <person id="800166" depart="372" departPos="random">
        <walk route="i"/>
    </person>
    <person id="800167" depart="373" departPos="random">
        <walk route="c"/>
    </person>
    <person id="800168" depart="373" departPos="random">
        <walk route="g"/>
    </person>
    <person id="800169" depart="375" departPos="random">
        <walk route="i"/>
    </person>
    <person id="800170" depart="375" departPos="random">
        <walk route="k"/>
    </person>
    <person id="800171" depart="379" departPos="random">
        <walk route="c"/>
    </person>
    <person id="800172" depart="380" departPos="random">
        <walk route="c"/>
    </person>
    <person id="800173" depart="381" departPos="random">
        <walk route="a"/>
    </person>
    <person id="800174" depart="382" departPos="random">
        <walk route="c"/>
    </person>
    <person id="800175" depart="384" departPos="random">
        <walk route="i"/>
    </person>
    <person id="800176" depart="385" departPos="random">
        <walk route="i"/>
    </person>
    <person id="800177" depart="386" departPos="random">
        <walk route="m"/>
    </person>
    <person id="800178" depart="388" departPos="random">
        <walk route="i"/>
    </person>
    <person id="800179" depart="388" departPos="random">
        <walk route="k"/>
    </person>
    <person id="800180" depart="391" departPos="random">
        <walk route="a"/>
    </person>
    <person id="800181" depart="391" departPos="random">
        <walk route="k"/>
    </person>
    <person id="800182" depart="394" departPos="random">
        <walk route="g"/>
    </person>
    <person id="800183" depart="395" departPos="random">
        <walk route="a"/>
    </person>
    <person id="800184" depart="397" departPos="random">
        <walk route="i"/>
    </person>
    <person id="800185" depart="398" departPos="random">
        <walk route="e"/>
    </person>
    <person id="800186" depart="398" departPos="random">
        <walk route="k"/>
    </person>
    <person id="800187" depart="402" departPos="random">
        <walk route="g"/>
    </person>
    <person id="800188" depart="402" departPos="random">
        <walk route="i"/>
    </person>
    <person id="800189" depart="403" departPos="random">
        <walk route="i"/>
    </person>
    <person id="800190" depart="406" departPos="random">
        <walk route="g"/>
    </person>
    <person id="800191" depart="406" departPos="random">
        <walk route="k"/>
    </person>
    <person id="800192" depart="408" departPos="random">
        <walk route="c"/>
    </person>
    <person id="800193" depart="410" departPos="random">
        <walk route="o"/>
    </person>
    <person id="800194" depart="414" departPos="random">
        <walk route="i"/>
    </person>
    <person id="800195" depart="417" departPos="random">
        <walk route="c"/>
    </person>
    <person id="800196" depart="418" departPos="random">
        <walk route="i"/>
    </person>
    <person id="800197" depart="419" departPos="random">
        <walk route="k"/>
    </person>
    <person id="800198" depart="425" departPos="random">
        <walk route="i"/>
    </person>
    <person id="800199" depart="430" departPos="random">
        <walk route="a"/>
    </person>
    <person id="800200" depart="432" departPos="random">
        <walk route="c"/>
    </person>
    <person id="800201" depart="435" departPos="random">
        <walk route="a"/>
    </person>
    <person id="800202" depart="436" departPos="random">
        <walk route="a"/>
    </person>
    <person id="800203" depart="437" departPos="random">
        <walk route="g"/>
    </person>
    <person id="800204" depart="437" departPos="random">
        <walk route="k"/>
    </person>
    <person id="800205" depart="439" departPos="random">
        <walk route="a"/>
    </person>
    <person id="800206" depart="447" departPos="random">
        <walk route="c"/>
    </person>
    <person id="800207" depart="449" departPos="random">
        <walk route="i"/>
    </person>
    <person id="800208" depart="454" departPos="random">
        <walk route="c"/>
    </person>
    <person id="800209" depart="459" departPos="random">
        <walk route="c"/>
    </person>
    <person id="800210" depart="462" departPos="random">
        <walk route="a"/>
    </person>
    <person id="800211" depart="462" departPos="random">
        <walk route="i"/>
    </person>
    <person id="800212" depart="465" departPos="random">
        <walk route="i"/>
    </person>
    <person id="800213" depart="470" departPos="random">
        <walk route="i"/>
    </person>
    <person id="800214" depart="471" departPos="random">
        <walk route="a"/>
    </person>
    <person id="800215" depart="471" departPos="random">
        <walk route="k"/>
    </person>
    <person id="800216" depart="472" departPos="random">
        <walk route="k"/>
    </person>
    <person id="800217" depart="474" departPos="random">
        <walk route="c"/>
    </person>
    <person id="800218" depart="475" departPos="random">
        <walk route="a"/>
    </person>
    <person id="800219" depart="475" departPos="random">
        <walk route="i"/>
    </person>
    <person id="800220" depart="475" departPos="random">
        <walk route="k"/>
    </person>
    <person id="800221" depart="479" departPos="random">
        <walk route="c"/>
    </person>
    <person id="800222" depart="483" departPos="random">
        <walk route="c"/>
    </person>
    <person id="800223" depart="492" departPos="random">
        <walk route="c"/>
    </person>
    <person id="800224" depart="493" departPos="random">
        <walk route="a"/>
    </person>
    <person id="800225" depart="500" departPos="random">
        <walk route="m"/>
    </person>
    <person id="800226" depart="503" departPos="random">
        <walk route="c"/>
    </person>
    <person id="800227" depart="510" departPos="random">
        <walk route="a"/>
    </person>
    <person id="800228" depart="515" departPos="random">
        <walk route="i"/>
    </person>
    <person id="800229" depart="517" departPos="random">
        <walk route="i"/>
    </person>
    <person id="800230" depart="518" departPos="random">
        <walk route="i"/>
    </person>
    <person id="800231" depart="520" departPos="random">
        <walk route="a"/>
    </person>
    <person id="800232" depart="520" departPos="random">
        <walk route="i"/>
    </person>
    <person id="800233" depart="523" departPos="random">
        <walk route="i"/>
    </person>
    <person id="800234" depart="524" departPos="random">
        <walk route="a"/>
    </person>
    <person id="800235" depart="524" departPos="random">
        <walk route="i"/>
    </person>
    <person id="800236" depart="527" departPos="random">
        <walk route="c"/>
    </person>
    <person id="800237" depart="527" departPos="random">
        <walk route="k"/>
    </person>
    <person id="800238" depart="528" departPos="random">
        <walk route="c"/>
    </person>
    <person id="800239" depart="530" departPos="random">
        <walk route="c"/>
    </person>
    <person id="800240" depart="531" departPos="random">
        <walk route="i"/>
    </person>
    <person id="800241" depart="533" departPos="random">
        <walk route="c"/>
    </person>
    <person id="800242" depart="534" departPos="random">
        <walk route="i"/>
    </person>
    <person id="800243" depart="536" departPos="random">
        <walk route="c"/>
    </person>
    <person id="800244" depart="536" departPos="random">
        <walk route="i"/>
    </person>
    <person id="800245" depart="536" departPos="random">
        <walk route="m"/>
    </person>
    <person id="800246" depart="541" departPos="random">
        <walk route="c"/>
    </person>
    <person id="800247" depart="542" departPos="random">
        <walk route="k"/>
    </person>
    <person id="800248" depart="543" departPos="random">
        <walk route="c"/>
    </person>
    <person id="800249" depart="543" departPos="random">
        <walk route="k"/>
    </person>
    <person id="800250" depart="544" departPos="random">
        <walk route="a"/>
    </person>
    <person id="800251" depart="551" departPos="random">
        <walk route="k"/>
    </person>
    <person id="800252" depart="552" departPos="random">
        <walk route="a"/>
    </person>
    <person id="800253" depart="554" departPos="random">
        <walk route="k"/>
    </person>
    <person id="800254" depart="560" departPos="random">
        <walk route="c"/>
    </person>
    <person id="800255" depart="560" departPos="random">
        <walk route="i"/>
    </person>
    <person id="800256" depart="563" departPos="random">
        <walk route="k"/>
    </person>
    <person id="800257" depart="564" departPos="random">
        <walk route="a"/>
    </person>
    <person id="800258" depart="569" departPos="random">
        <walk route="c"/>
    </person>
    <person id="800259" depart="570" departPos="random">
        <walk route="e"/>
    </person>
    <person id="800260" depart="575" departPos="random">
        <walk route="a"/>
    </person>
    <person id="800261" depart="576" departPos="random">
        <walk route="c"/>
    </person>
    <person id="800262" depart="579" departPos="random">
        <walk route="m"/>
    </person>
    <person id="800263" depart="580" departPos="random">
        <walk route="c"/>
    </person>
    <person id="800264" depart="581" departPos="random">
        <walk route="a"/>
    </person>
    <person id="800265" depart="581" departPos="random">
        <walk route="c"/>
    </person>
    <person id="800266" depart="582" departPos="random">
        <walk route="k"/>
    </person>
    <person id="800267" depart="583" departPos="random">
        <walk route="k"/>
    </person>
    <person id="800268" depart="584" departPos="random">
        <walk route="a"/>
    </person>
    <person id="800269" depart="584" departPos="random">
        <walk route="m"/>
    </person>
    <person id="800270" depart="585" departPos="random">
        <walk route="i"/>
    </person>
    <person id="800271" depart="585" departPos="random">
        <walk route="k"/>
    </person>
    <person id="800272" depart="591" departPos="random">
        <walk route="a"/>
    </person>
    <person id="800273" depart="594" departPos="random">
        <walk route="o"/>
    </person>
    <person id="800274" depart="596" departPos="random">
        <walk route="a"/>
    </person>
    <person id="800275" depart="600" departPos="random">
        <walk route="k"/>
    </person>
    <person id="800276" depart="601" departPos="random">
        <walk route="i"/>
    </person>
    <person id="800277" depart="604" departPos="random">
        <walk route="i"/>
    </person>
    <person id="800278" depart="606" departPos="random">
        <walk route="i"/>
    </person>
    <person id="800279" depart="611" departPos="random">
        <walk route="a"/>
    </person>
    <person id="800280" depart="611" departPos="random">
        <walk route="i"/>
    </person>
    <person id="800281" depart="616" departPos="random">
        <walk route="e"/>
    </person>
    <person id="800282" depart="616" departPos="random">
        <walk route="m"/>
    </person>
    <person id="800283" depart="617" departPos="random">
        <walk route="i"/>
    </person>
    <person id="800284" depart="623" departPos="random">
        <walk route="i"/>
    </person>
    <person id="800285" depart="629" departPos="random">
        <walk route="g"/>
    </person>
    <person id="800286" depart="631" departPos="random">
        <walk route="c"/>
    </person>
    <person id="800287" depart="633" departPos="random">
        <walk route="m"/>
    </person>
    <person id="800288" depart="643" departPos="random">
        <walk route="i"/>
    </person>
    <person id="800289" depart="646" departPos="random">
        <walk route="k"/>
    </person>
    <person id="800290" depart="654" departPos="random">
        <walk route="e"/>
    </person>
    <person id="800291" depart="656" departPos="random">
        <walk route="a"/>
    </person>
    <person id="800292" depart="656" departPos="random">
        <walk route="k"/>
    </person>
    <person id="800293" depart="659" departPos="random">
        <walk route="a"/>
    </person>
    <person id="800294" depart="663" departPos="random">
        <walk route="c"/>
    </person>
    <person id="800295" depart="664" departPos="random">
        <walk route="c"/>
    </person>
    <person id="800296" depart="664" departPos="random">
        <walk route="k"/>
    </person>
    <person id="800297" depart="666" departPos="random">
        <walk route="c"/>
    </person>
    <person id="800298" depart="668" departPos="random">
        <walk route="c"/>
    </person>
    <person id="800299" depart="669" departPos="random">
        <walk route="c"/>
    </person>
    <person id="800300" depart="670" departPos="random">
        <walk route="k"/>
    </person>
    <person id="800301" depart="678" departPos="random">
        <walk route="i"/>
    </person>
    <person id="800302" depart="681" departPos="random">
        <walk route="k"/>
    </person>
    <person id="800303" depart="684" departPos="random">