<routes>
        
            <vType id="Volkswagen" accel="2.3" decel="4.5" sigma="0.5" length="4.0" maxSpeed="60" color="124,252,0" vClass="private" emissionClass="P_7_7"/>  
        
            <route id="1" edges="a_1 1_2 2_3 3_10 10_9 9_c"/>
            <route id="2" edges="a_1 1_2 2_3 3_11 11_12 12_d"/>
            <route id="3" edges="a_1 1_2 2_3 3_4 4_5 5_6 6_14 14_13 13_e"/>
            <route id="4" edges="a_1 1_2 2_3 3_4 4_5 5_6 6_15 15_16 16_f"/>
            <route id="5" edges="a_1 1_2 2_3 3_4 4_5 5_6 6_7 7_8 8_b"/>

            <route id="6" edges="b_8 8_7 7_6 6_15 15_16 16_f"/>
            <route id="7" edges="b_8 8_7 7_6 6_14 14_13 13_e"/>
            <route id="8" edges="b_8 8_7 7_6 6_5 5_4 4_3 3_2 2_1 1_a"/>
            <route id="9" edges="b_8 8_7 7_6 6_5 5_4 4_3 3_11 11_12 12_d"/> 
            <route id="10" edges="b_8 8_7 7_6 6_5 5_4 4_3 3_10 10_9 9_c"/>
            
            <route id="11" edges="d_12 12_11 11_3 3_10 10_9 9_c"/>
            <route id="12" edges="d_12 12_11 11_3  3_2 2_1 1_a "/>
            <route id="13" edges="d_12 12_11 11_3 3_4 4_5 5_6 6_7 7_8 8_b"/>
            <route id="14" edges="d_12 12_11 11_3  3_4 4_5 5_6 6_15 15_16 16_f"/> 
            <route id="15" edges="d_12 12_11 11_3 3_4 4_5 5_6 6_14 14_13 13_e"/>
            
            <route id="16" edges="c_9 9_10 10_3 3_2 2_1 1_a"/>
            <route id="17" edges="c_9 9_10 10_3 3_11 11_12 12_d"/>
            <route id="18" edges="c_9 9_10 10_3 3_4 4_5 5_6 6_15 15_16 16_f"/>
            <route id="19" edges="c_9 9_10 10_3 3_4 4_5 5_6 6_14 14_13 13_e"/> 
            <route id="20" edges="c_9 9_10 10_3 3_4 4_5 5_6 6_7 7_8 8_b"/>
            
            <route id="21" edges="f_16 16_15 15_6 6_7 7_8 8_b"/>
            <route id="22" edges="f_16 16_15 15_6 6_14 14_13 13_e"/>
            <route id="23" edges="f_16 16_15 15_6 6_5 5_4 4_3 3_11 11_12 12_d"/>
            <route id="24" edges="f_16 16_15 15_6 6_5 5_4 4_3 3_10 10_9 9_c"/> 
            <route id="25" edges="f_16 16_15 15_6 6_5 5_4 4_3 3_2 2_1 1_a"/>
            
            <route id="26" edges="e_13 13_14 14_6 6_7 7_8 8_b"/>
            <route id="27" edges="e_13 13_14 14_6 6_15 15_16 16_f"/>
            <route id="28" edges="e_13 13_14 14_6 6_5 5_4 4_3 3_11 11_12 12_d"/>
            <route id="29" edges="e_13 13_14 14_6 6_5 5_4 4_3 3_10 10_9 9_c"/> 
            <route id="30" edges="e_13 13_14 14_6 6_5 5_4 4_3 3_2 2_1 1_a"/>	
                        
        
    <vehicle id="0" type="Volkswagen" route="22" depart="1" departLane="free" departSpeed="random" />
    <vehicle id="1" type="Volkswagen" route="8" depart="2" departLane="free" departSpeed="random" />
    <vehicle id="2" type="Volkswagen" route="5" depart="3" departLane="free" departSpeed="random" />
    <vehicle id="3" type="Volkswagen" route="8" depart="9" departLane="free" departSpeed="random" />
    <vehicle id="4" type="Volkswagen" route="13" depart="10" departLane="free" departSpeed="random" />
    <vehicle id="5" type="Volkswagen" route="8" depart="11" departLane="free" departSpeed="random" />
    <vehicle id="6" type="Volkswagen" route="5" depart="12" departLane="free" departSpeed="random" />
    <vehicle id="7" type="Volkswagen" route="8" depart="12" departLane="free" departSpeed="random" />
    <vehicle id="8" type="Volkswagen" route="5" depart="13" departLane="free" departSpeed="random" />
    <vehicle id="9" type="Volkswagen" route="8" depart="14" departLane="free" departSpeed="random" />
    <vehicle id="10" type="Volkswagen" route="27" depart="16" departLane="free" departSpeed="random" />
    <vehicle id="11" type="Volkswagen" route="8" depart="17" departLane="free" departSpeed="random" />
    <vehicle id="12" type="Volkswagen" route="5" depart="18" departLane="free" departSpeed="random" />
    <vehicle id="13" type="Volkswagen" route="27" depart="19" departLane="free" departSpeed="random" />
    <vehicle id="14" type="Volkswagen" route="8" depart="20" departLane="free" departSpeed="random" />
    <vehicle id="15" type="Volkswagen" route="8" depart="21" departLane="free" departSpeed="random" />
    <vehicle id="16" type="Volkswagen" route="1" depart="24" departLane="free" departSpeed="random" />
    <vehicle id="17" type="Volkswagen" route="8" depart="24" departLane="free" departSpeed="random" />
    <vehicle id="18" type="Volkswagen" route="5" depart="25" departLane="free" departSpeed="random" />
    <vehicle id="19" type="Volkswagen" route="7" depart="25" departLane="free" departSpeed="random" />
    <vehicle id="20" type="Volkswagen" route="27" depart="26" departLane="free" departSpeed="random" />
    <vehicle id="21" type="Volkswagen" route="5" depart="28" departLane="free" departSpeed="random" />
    <vehicle id="22" type="Volkswagen" route="1" depart="29" departLane="free" departSpeed="random" />
    <vehicle id="23" type="Volkswagen" route="22" depart="33" departLane="free" departSpeed="random" />
    <vehicle id="24" type="Volkswagen" route="2" depart="35" departLane="free" departSpeed="random" />
    <vehicle id="25" type="Volkswagen" route="11" depart="39" departLane="free" departSpeed="random" />
    <vehicle id="26" type="Volkswagen" route="8" depart="45" departLane="free" departSpeed="random" />
    <vehicle id="27" type="Volkswagen" route="6" depart="46" departLane="free" departSpeed="random" />
    <vehicle id="28" type="Volkswagen" route="7" depart="49" departLane="free" departSpeed="random" />
    <vehicle id="29" type="Volkswagen" route="9" depart="49" departLane="free" departSpeed="random" />
    <vehicle id="30" type="Volkswagen" route="6" depart="52" departLane="free" departSpeed="random" />
    <vehicle id="31" type="Volkswagen" route="11" depart="55" departLane="free" departSpeed="random" />
    <vehicle id="32" type="Volkswagen" route="5" depart="57" departLane="free" departSpeed="random" />
    <vehicle id="33" type="Volkswagen" route="8" depart="58" departLane="free" departSpeed="random" />
    <vehicle id="34" type="Volkswagen" route="27" depart="58" departLane="free" departSpeed="random" />
    <vehicle id="35" type="Volkswagen" route="5" depart="59" departLane="free" departSpeed="random" />
    <vehicle id="36" type="Volkswagen" route="4" depart="63" departLane="free" departSpeed="random" />
    <vehicle id="37" type="Volkswagen" route="8" depart="63" departLane="free" departSpeed="random" />
    <vehicle id="38" type="Volkswagen" route="6" depart="64" departLane="free" departSpeed="random" />
    <vehicle id="39" type="Volkswagen" route="27" depart="64" departLane="free" departSpeed="random" />
    <vehicle id="40" type="Volkswagen" route="5" depart="65" departLane="free" departSpeed="random" />
    <vehicle id="41" type="Volkswagen" route="5" depart="67" departLane="free" departSpeed="random" />
    <vehicle id="42" type="Volkswagen" route="17" depart="67" departLane="free" departSpeed="random" />
    <vehicle id="43" type="Volkswagen" route="8" depart="73" departLane="free" departSpeed="random" />
    <vehicle id="44" type="Volkswagen" route="8" depart="75" departLane="free" departSpeed="random" />
    <vehicle id="45" type="Volkswagen" route="17" depart="78" departLane="free" departSpeed="random" />
    <vehicle id="46" type="Volkswagen" route="5" depart="80" departLane="free" departSpeed="random" />
    <vehicle id="47" type="Volkswagen" route="22" depart="80" departLane="free" departSpeed="random" />
    <vehicle id="48" type="Volkswagen" route="27" depart="80" departLane="free" departSpeed="random" />
    <vehicle id="49" type="Volkswagen" route="2" depart="81" departLane="free" departSpeed="random" />
    <vehicle id="50" type="Volkswagen" route="5" depart="81" departLane="free" departSpeed="random" />
    <vehicle id="51" type="Volkswagen" route="8" depart="81" departLane="free" departSpeed="random" />
    <vehicle id="52" type="Volkswagen" route="27" depart="81" departLane="free" departSpeed="random" />
    <vehicle id="53" type="Volkswagen" route="8" depart="82" departLane="free" departSpeed="random" />
    <vehicle id="54" type="Volkswagen" route="27" depart="82" departLane="free" departSpeed="random" />
    <vehicle id="55" type="Volkswagen" route="5" depart="83" departLane="free" departSpeed="random" />
    <vehicle id="56" type="Volkswagen" route="8" depart="84" departLane="free" departSpeed="random" />
    <vehicle id="57" type="Volkswagen" route="11" depart="84" departLane="free" departSpeed="random" />
    <vehicle id="58" type="Volkswagen" route="5" depart="87" departLane="free" departSpeed="random" />
    <vehicle id="59" type="Volkswagen" route="8" depart="87" departLane="free" departSpeed="random" />
    <vehicle id="60" type="Volkswagen" route="8" depart="91" departLane="free" departSpeed="random" />
    <vehicle id="61" type="Volkswagen" route="17" depart="91" departLane="free" departSpeed="random" />
    <vehicle id="62" type="Volkswagen" route="5" depart="93" departLane="free" departSpeed="random" />
    <vehicle id="63" type="Volkswagen" route="4" depart="95" departLane="free" departSpeed="random" />
    <vehicle id="64" type="Volkswagen" route="5" depart="95" departLane="free" departSpeed="random" />
    <vehicle id="65" type="Volkswagen" route="1" depart="97" departLane="free" departSpeed="random" />
    <vehicle id="66" type="Volkswagen" route="5" depart="97" departLane="free" departSpeed="random" />
    <vehicle id="67" type="Volkswagen" route="17" depart="97" departLane="free" departSpeed="random" />
    <vehicle id="68" type="Volkswagen" route="17" depart="99" departLane="free" departSpeed="random" />
    <vehicle id="69" type="Volkswagen" route="17" depart="100" departLane="free" departSpeed="random" />
    <vehicle id="70" type="Volkswagen" route="27" depart="100" departLane="free" departSpeed="random" />
    <vehicle id="71" type="Volkswagen" route="8" depart="101" departLane="free" departSpeed="random" />
    <vehicle id="72" type="Volkswagen" route="11" depart="102" departLane="free" departSpeed="random" />
    <vehicle id="73" type="Volkswagen" route="22" depart="103" departLane="free" departSpeed="random" />
    <vehicle id="74" type="Volkswagen" route="27" depart="103" departLane="free" departSpeed="random" />
    <vehicle id="75" type="Volkswagen" route="5" depart="104" departLane="free" departSpeed="random" />
    <vehicle id="76" type="Volkswagen" route="5" depart="106" departLane="free" departSpeed="random" />
    <vehicle id="77" type="Volkswagen" route="8" depart="106" departLane="free" departSpeed="random" />
    <vehicle id="78" type="Volkswagen" route="5" depart="107" departLane="free" departSpeed="random" />
    <vehicle id="79" type="Volkswagen" route="1" depart="111" departLane="free" departSpeed="random" />
    <vehicle id="80" type="Volkswagen" route="4" depart="111" departLane="free" departSpeed="random" />
    <vehicle id="81" type="Volkswagen" route="11" depart="113" departLane="free" departSpeed="random" />
    <vehicle id="82" type="Volkswagen" route="16" depart="115" departLane="free" departSpeed="random" />
    <vehicle id="83" type="Volkswagen" route="22" depart="118" departLane="free" departSpeed="random" />
    <vehicle id="84" type="Volkswagen" route="1" depart="122" departLane="free" departSpeed="random" />
    <vehicle id="85" type="Volkswagen" route="22" depart="125" departLane="free" departSpeed="random" />
    <vehicle id="86" type="Volkswagen" route="10" depart="126" departLane="free" departSpeed="random" />
    <vehicle id="87" type="Volkswagen" route="5" depart="129" departLane="free" departSpeed="random" />
    <vehicle id="88" type="Volkswagen" route="8" depart="129" departLane="free" departSpeed="random" />
    <vehicle id="89" type="Volkswagen" route="10" depart="129" departLane="free" departSpeed="random" />
    <vehicle id="90" type="Volkswagen" route="6" depart="130" departLane="free" departSpeed="random" />
    <vehicle id="91" type="Volkswagen" route="22" depart="130" departLane="free" departSpeed="random" />
    <vehicle id="92" type="Volkswagen" route="26" depart="131" departLane="free" departSpeed="random" />
    <vehicle id="93" type="Volkswagen" route="8" depart="134" departLane="free" departSpeed="random" />
    <vehicle id="94" type="Volkswagen" route="9" depart="136" departLane="free" departSpeed="random" />
    <vehicle id="95" type="Volkswagen" route="20" depart="137" departLane="free" departSpeed="random" />
    <vehicle id="96" type="Volkswagen" route="8" depart="138" departLane="free" departSpeed="random" />
    <vehicle id="97" type="Volkswagen" route="5" depart="140" departLane="free" departSpeed="random" />
    <vehicle id="98" type="Volkswagen" route="8" depart="140" departLane="free" departSpeed="random" />
    <vehicle id="99" type="Volkswagen" route="5" depart="143" departLane="free" departSpeed="random" />
    <vehicle id="100" type="Volkswagen" route="27" depart="143" departLane="free" departSpeed="random" />
    <vehicle id="101" type="Volkswagen" route="10" depart="144" departLane="free" departSpeed="random" />
    <vehicle id="102" type="Volkswagen" route="8" depart="145" departLane="free" departSpeed="random" />
    <vehicle id="103" type="Volkswagen" route="8" depart="146" departLane="free" departSpeed="random" />
    <vehicle id="104" type="Volkswagen" route="10" depart="148" departLane="free" departSpeed="random" />
    <vehicle id="105" type="Volkswagen" route="11" depart="148" departLane="free" departSpeed="random" />
    <vehicle id="106" type="Volkswagen" route="27" depart="148" departLane="free" departSpeed="random" />
    <vehicle id="107" type="Volkswagen" route="17" depart="151" departLane="free" departSpeed="random" />
    <vehicle id="108" type="Volkswagen" route="5" depart="152" departLane="free" departSpeed="random" />
    <vehicle id="109" type="Volkswagen" route="5" depart="154" departLane="free" departSpeed="random" />
    <vehicle id="110" type="Volkswagen" route="5" depart="155" departLane="free" departSpeed="random" />
    <vehicle id="111" type="Volkswagen" route="7" depart="155" departLane="free" departSpeed="random" />
    <vehicle id="112" type="Volkswagen" route="5" depart="156" departLane="free" departSpeed="random" />
    <vehicle id="113" type="Volkswagen" route="16" depart="156" departLane="free" departSpeed="random" />
    <vehicle id="114" type="Volkswagen" route="2" depart="161" departLane="free" departSpeed="random" />
    <vehicle id="115" type="Volkswagen" route="3" depart="163" departLane="free" departSpeed="random" />
    <vehicle id="116" type="Volkswagen" route="8" depart="163" departLane="free" departSpeed="random" />
    <vehicle id="117" type="Volkswagen" route="10" depart="164" departLane="free" departSpeed="random" />
    <vehicle id="118" type="Volkswagen" route="5" depart="165" departLane="free" departSpeed="random" />
    <vehicle id="119" type="Volkswagen" route="8" depart="165" departLane="free" departSpeed="random" />
    <vehicle id="120" type="Volkswagen" route="5" depart="170" departLane="free" departSpeed="random" />
    <vehicle id="121" type="Volkswagen" route="9" depart="170" departLane="free" departSpeed="random" />
    <vehicle id="122" type="Volkswagen" route="11" depart="170" departLane="free" departSpeed="random" />
    <vehicle id="123" type="Volkswagen" route="5" depart="174" departLane="free" departSpeed="random" />
    <vehicle id="124" type="Volkswagen" route="16" depart="177" departLane="free" departSpeed="random" />
    <vehicle id="125" type="Volkswagen" route="5" depart="178" departLane="free" departSpeed="random" />
    <vehicle id="126" type="Volkswagen" route="17" depart="178" departLane="free" departSpeed="random" />
    <vehicle id="127" type="Volkswagen" route="30" depart="178" departLane="free" departSpeed="random" />
    <vehicle id="128" type="Volkswagen" route="8" depart="179" departLane="free" departSpeed="random" />
    <vehicle id="129" type="Volkswagen" route="22" depart="180" departLane="free" departSpeed="random" />
    <vehicle id="130" type="Volkswagen" route="27" depart="181" departLane="free" departSpeed="random" />
    <vehicle id="131" type="Volkswagen" route="8" depart="182" departLane="free" departSpeed="random" />
    <vehicle id="132" type="Volkswagen" route="5" depart="184" departLane="free" departSpeed="random" />
    <vehicle id="133" type="Volkswagen" route="3" depart="185" departLane="free" departSpeed="random" />
    <vehicle id="134" type="Volkswagen" route="5" depart="185" departLane="free" departSpeed="random" />
    <vehicle id="135" type="Volkswagen" route="12" depart="187" departLane="free" departSpeed="random" />
    <vehicle id="136" type="Volkswagen" route="5" depart="188" departLane="free" departSpeed="random" />
    <vehicle id="137" type="Volkswagen" route="22" depart="189" departLane="free" departSpeed="random" />
    <vehicle id="138" type="Volkswagen" route="6" depart="190" departLane="free" departSpeed="random" />
    <vehicle id="139" type="Volkswagen" route="11" depart="191" departLane="free" departSpeed="random" />
    <vehicle id="140" type="Volkswagen" route="4" depart="193" departLane="free" departSpeed="random" />
    <vehicle id="141" type="Volkswagen" route="8" depart="193" departLane="free" departSpeed="random" />
    <vehicle id="142" type="Volkswagen" route="1" depart="195" departLane="free" departSpeed="random" />
    <vehicle id="143" type="Volkswagen" route="7" depart="197" departLane="free" departSpeed="random" />
    <vehicle id="144" type="Volkswagen" route="4" depart="199" departLane="free" departSpeed="random" />
    <vehicle id="145" type="Volkswagen" route="5" depart="199" departLane="free" departSpeed="random" />
    <vehicle id="146" type="Volkswagen" route="8" depart="199" departLane="free" departSpeed="random" />
    <vehicle id="147" type="Volkswagen" route="5" depart="202" departLane="free" departSpeed="random" />
    <vehicle id="148" type="Volkswagen" route="8" depart="203" departLane="free" departSpeed="random" />
    <vehicle id="149" type="Volkswagen" route="5" depart="204" departLane="free" departSpeed="random" />
    <vehicle id="150" type="Volkswagen" route="10" depart="206" departLane="free" departSpeed="random" />
    <vehicle id="151" type="Volkswagen" route="8" depart="207" departLane="free" departSpeed="random" />
    <vehicle id="152" type="Volkswagen" route="22" depart="208" departLane="free" departSpeed="random" />
    <vehicle id="153" type="Volkswagen" route="22" depart="211" departLane="free" departSpeed="random" />
    <vehicle id="154" type="Volkswagen" route="11" depart="212" departLane="free" departSpeed="random" />
    <vehicle id="155" type="Volkswagen" route="8" depart="213" departLane="free" departSpeed="random" />
    <vehicle id="156" type="Volkswagen" route="8" depart="215" departLane="free" departSpeed="random" />
    <vehicle id="157" type="Volkswagen" route="9" depart="215" departLane="free" departSpeed="random" />
    <vehicle id="158" type="Volkswagen" route="9" depart="217" departLane="free" departSpeed="random" />
    <vehicle id="159" type="Volkswagen" route="8" depart="218" departLane="free" departSpeed="random" />
    <vehicle id="160" type="Volkswagen" route="5" depart="219" departLane="free" departSpeed="random" />
    <vehicle id="161" type="Volkswagen" route="11" depart="219" departLane="free" departSpeed="random" />
    <vehicle id="162" type="Volkswagen" route="27" depart="219" departLane="free" departSpeed="random" />
    <vehicle id="163" type="Volkswagen" route="4" depart="222" departLane="free" departSpeed="random" />
    <vehicle id="164" type="Volkswagen" route="3" depart="224" departLane="free" departSpeed="random" />
    <vehicle id="165" type="Volkswagen" route="5" depart="225" departLane="free" departSpeed="random" />
    <vehicle id="166" type="Volkswagen" route="7" depart="225" departLane="free" departSpeed="random" />
    <vehicle id="167" type="Volkswagen" route="22" depart="225" departLane="free" departSpeed="random" />
    <vehicle id="168" type="Volkswagen" route="11" depart="227" departLane="free" departSpeed="random" />
    <vehicle id="169" type="Volkswagen" route="1" depart="228" departLane="free" departSpeed="random" />
    <vehicle id="170" type="Volkswagen" route="11" depart="229" departLane="free" departSpeed="random" />
    <vehicle id="171" type="Volkswagen" route="5" depart="230" departLane="free" departSpeed="random" />
    <vehicle id="172" type="Volkswagen" route="27" depart="230" departLane="free" departSpeed="random" />
    <vehicle id="173" type="Volkswagen" route="9" depart="231" departLane="free" departSpeed="random" />
    <vehicle id="174" type="Volkswagen" route="22" depart="232" departLane="free" departSpeed="random" />
    <vehicle id="175" type="Volkswagen" route="8" depart="237" departLane="free" departSpeed="random" />
    <vehicle id="176" type="Volkswagen" route="10" depart="237" departLane="free" departSpeed="random" />
    <vehicle id="177" type="Volkswagen" route="25" depart="237" departLane="free" departSpeed="random" />
    <vehicle id="178" type="Volkswagen" route="5" depart="238" departLane="free" departSpeed="random" />
    <vehicle id="179" type="Volkswagen" route="5" depart="239" departLane="free" departSpeed="random" />
    <vehicle id="180" type="Volkswagen" route="8" depart="240" departLane="free" departSpeed="random" />
    <vehicle id="181" type="Volkswagen" route="17" depart="240" departLane="free" departSpeed="random" />
    <vehicle id="182" type="Volkswagen" route="9" depart="242" departLane="free" departSpeed="random" />
    <vehicle id="183" type="Volkswagen" route="8" depart="244" departLane="free" departSpeed="random" />
    <vehicle id="184" type="Volkswagen" route="8" depart="245" departLane="free" departSpeed="random" />
    <vehicle id="185" type="Volkswagen" route="11" depart="245" departLane="free" departSpeed="random" />
    <vehicle id="186" type="Volkswagen" route="10" depart="246" departLane="free" departSpeed="random" />
    <vehicle id="187" type="Volkswagen" route="5" depart="247" departLane="free" departSpeed="random" />
    <vehicle id="188" type="Volkswagen" route="6" depart="247" departLane="free" departSpeed="random" />
    <vehicle id="189" type="Volkswagen" route="5" depart="249" departLane="free" departSpeed="random" />
    <vehicle id="190" type="Volkswagen" route="8" depart="249" departLane="free" departSpeed="random" />
    <vehicle id="191" type="Volkswagen" route="11" depart="249" departLane="free" departSpeed="random" />
    <vehicle id="192" type="Volkswagen" route="11" depart="250" departLane="free" departSpeed="random" />
    <vehicle id="193" type="Volkswagen" route="22" depart="250" departLane="free" departSpeed="random" />
    <vehicle id="194" type="Volkswagen" route="11" depart="253" departLane="free" departSpeed="random" />
    <vehicle id="195" type="Volkswagen" route="27" depart="253" departLane="free" departSpeed="random" />
    <vehicle id="196" type="Volkswagen" route="5" depart="254" departLane="free" departSpeed="random" />
    <vehicle id="197" type="Volkswagen" route="26" depart="254" departLane="free" departSpeed="random" />
    <vehicle id="198" type="Volkswagen" route="14" depart="256" departLane="free" departSpeed="random" />
    <vehicle id="199" type="Volkswagen" route="4" depart="257" departLane="free" departSpeed="random" />
    <vehicle id="200" type="Volkswagen" route="8" depart="258" departLane="free" departSpeed="random" />
    <vehicle id="201" type="Volkswagen" route="5" depart="261" departLane="free" departSpeed="random" />
    <vehicle id="202" type="Volkswagen" route="6" depart="261" departLane="free" departSpeed="random" />
    <vehicle id="203" type="Volkswagen" route="7" depart="261" departLane="free" departSpeed="random" />
    <vehicle id="204" type="Volkswagen" route="22" depart="264" departLane="free" departSpeed="random" />
    <vehicle id="205" type="Volkswagen" route="2" depart="266" departLane="free" departSpeed="random" />
    <vehicle id="206" type="Volkswagen" route="21" depart="266" departLane="free" departSpeed="random" />
    <vehicle id="207" type="Volkswagen" route="5" depart="267" departLane="free" departSpeed="random" />
    <vehicle id="208" type="Volkswagen" route="17" depart="268" departLane="free" departSpeed="random" />
    <vehicle id="209" type="Volkswagen" route="22" depart="268" departLane="free" departSpeed="random" />
    <vehicle id="210" type="Volkswagen" route="4" depart="270" departLane="free" departSpeed="random" />
    <vehicle id="211" type="Volkswagen" route="5" depart="271" departLane="free" departSpeed="random" />
    <vehicle id="212" type="Volkswagen" route="17" depart="272" departLane="free" departSpeed="random" />
    <vehicle id="213" type="Volkswagen" route="11" depart="274" departLane="free" departSpeed="random" />
    <vehicle id="214" type="Volkswagen" route="25" depart="275" departLane="free" departSpeed="random" />
    <vehicle id="215" type="Volkswagen" route="27" depart="276" departLane="free" departSpeed="random" />
    <vehicle id="216" type="Volkswagen" route="8" depart="278" departLane="free" departSpeed="random" />
    <vehicle id="217" type="Volkswagen" route="8" depart="279" departLane="free" departSpeed="random" />
    <vehicle id="218" type="Volkswagen" route="11" depart="279" departLane="free" departSpeed="random" />
    <vehicle id="219" type="Volkswagen" route="8" depart="280" departLane="free" departSpeed="random" />
    <vehicle id="220" type="Volkswagen" route="5" depart="282" departLane="free" departSpeed="random" />
    <vehicle id="221" type="Volkswagen" route="22" depart="283" departLane="free" departSpeed="random" />
    <vehicle id="222" type="Volkswagen" route="5" depart="287" departLane="free" departSpeed="random" />
    <vehicle id="223" type="Volkswagen" route="1" depart="288" departLane="free" departSpeed="random" />
    <vehicle id="224" type="Volkswagen" route="5" depart="290" departLane="free" departSpeed="random" />
    <vehicle id="225" type="Volkswagen" route="6" depart="292" departLane="free" departSpeed="random" />
    <vehicle id="226" type="Volkswagen" route="5" depart="294" departLane="free" departSpeed="random" />
    <vehicle id="227" type="Volkswagen" route="8" depart="296" departLane="free" departSpeed="random" />
    <vehicle id="228" type="Volkswagen" route="2" depart="297" departLane="free" departSpeed="random" />
    <vehicle id="229" type="Volkswagen" route="11" depart="298" departLane="free" departSpeed="random" />
    <vehicle id="230" type="Volkswagen" route="25" depart="298" departLane="free" departSpeed="random" />
    <vehicle id="231" type="Volkswagen" route="10" depart="299" departLane="free" departSpeed="random" />
    <vehicle id="232" type="Volkswagen" route="30" depart="300" departLane="free" departSpeed="random" />
    <vehicle id="233" type="Volkswagen" route="6" depart="301" departLane="free" departSpeed="random" />
    <vehicle id="234" type="Volkswagen" route="5" depart="302" departLane="free" departSpeed="random" />
    <vehicle id="235" type="Volkswagen" route="8" depart="302" departLane="free" departSpeed="random" />
    <vehicle id="236" type="Volkswagen" route="5" depart="303" departLane="free" departSpeed="random" />
    <vehicle id="237" type="Volkswagen" route="8" depart="307" departLane="free" departSpeed="random" />
    <vehicle id="238" type="Volkswagen" route="10" depart="307" departLane="free" departSpeed="random" />
    <vehicle id="239" type="Volkswagen" route="2" depart="312" departLane="free" departSpeed="random" />
    <vehicle id="240" type="Volkswagen" route="17" depart="312" departLane="free" departSpeed="random" />
    <vehicle id="241" type="Volkswagen" route="17" depart="313" departLane="free" departSpeed="random" />
    <vehicle id="242" type="Volkswagen" route="18" depart="313" departLane="free" departSpeed="random" />
    <vehicle id="243" type="Volkswagen" route="8" depart="315" departLane="free" departSpeed="random" />
    <vehicle id="244" type="Volkswagen" route="13" depart="321" departLane="free" departSpeed="random" />
    <vehicle id="245" type="Volkswagen" route="20" depart="321" departLane="free" departSpeed="random" />
    <vehicle id="246" type="Volkswagen" route="9" depart="322" departLane="free" departSpeed="random" />
    <vehicle id="247" type="Volkswagen" route="6" depart="326" departLane="free" departSpeed="random" />
    <vehicle id="248" type="Volkswagen" route="5" depart="329" departLane="free" departSpeed="random" />
    <vehicle id="249" type="Volkswagen" route="27" depart="330" departLane="free" departSpeed="random" />
    <vehicle id="250" type="Volkswagen" route="9" depart="332" departLane="free" departSpeed="random" />
    <vehicle id="251" type="Volkswagen" route="5" depart="333" departLane="free" departSpeed="random" />
    <vehicle id="252" type="Volkswagen" route="9" depart="333" departLane="free" departSpeed="random" />
    <vehicle id="253" type="Volkswagen" route="17" depart="334" departLane="free" departSpeed="random" />
    <vehicle id="254" type="Volkswagen" route="6" depart="336" departLane="free" departSpeed="random" />
    <vehicle id="255" type="Volkswagen" route="8" depart="336" departLane="free" departSpeed="random" />
    <vehicle id="256" type="Volkswagen" route="22" depart="336" departLane="free" departSpeed="random" />
    <vehicle id="257" type="Volkswagen" route="5" depart="340" departLane="free" departSpeed="random" />
    <vehicle id="258" type="Volkswagen" route="5" depart="347" departLane="free" departSpeed="random" />
    <vehicle id="259" type="Volkswagen" route="5" depart="349" departLane="free" departSpeed="random" />
    <vehicle id="260" type="Volkswagen" route="8" depart="351" departLane="free" departSpeed="random" />
    <vehicle id="261" type="Volkswagen" route="5" depart="356" departLane="free" departSpeed="random" />
    <vehicle id="262" type="Volkswagen" route="10" depart="357" departLane="free" departSpeed="random" />