<routes>
        
            <vType id="Volkswagen" accel="2.3" decel="4.5" sigma="0.5" length="4.0" maxSpeed="60" color="124,252,0" vClass="private" emissionClass="P_7_7"/>  
        
            <route id="1" edges="a_1 1_2 2_3 3_10 10_9 9_c"/>
            <route id="2" edges="a_1 1_2 2_3 3_11 11_12 12_d"/>
            <route id="3" edges="a_1 1_2 2_3 3_4 4_5 5_6 6_14 14_13 13_e"/>
            <route id="4" edges="a_1 1_2 2_3 3_4 4_5 5_6 6_15 15_16 16_f"/>
            <route id="5" edges="a_1 1_2 2_3 3_4 4_5 5_6 6_7 7_8 8_b"/>

            <route id="6" edges="b_8 8_7 7_6 6_15 15_16 16_f"/>
            <route id="7" edges="b_8 8_7 7_6 6_14 14_13 13_e"/>
            <route id="8" edges="b_8 8_7 7_6 6_5 5_4 4_3 3_2 2_1 1_a"/>
            <route id="9" edges="b_8 8_7 7_6 6_5 5_4 4_3 3_11 11_12 12_d"/> 
            <route id="10" edges="b_8 8_7 7_6 6_5 5_4 4_3 3_10 10_9 9_c"/>
            
            <route id="11" edges="d_12 12_11 11_3 3_10 10_9 9_c"/>
            <route id="12" edges="d_12 12_11 11_3  3_2 2_1 1_a "/>
            <route id="13" edges="d_12 12_11 11_3 3_4 4_5 5_6 6_7 7_8 8_b"/>
            <route id="14" edges="d_12 12_11 11_3  3_4 4_5 5_6 6_15 15_16 16_f"/> 
            <route id="15" edges="d_12 12_11 11_3 3_4 4_5 5_6 6_14 14_13 13_e"/>
            
            <route id="16" edges="c_9 9_10 10_3 3_2 2_1 1_a"/>
            <route id="17" edges="c_9 9_10 10_3 3_11 11_12 12_d"/>
            <route id="18" edges="c_9 9_10 10_3 3_4 4_5 5_6 6_15 15_16 16_f"/>
            <route id="19" edges="c_9 9_10 10_3 3_4 4_5 5_6 6_14 14_13 13_e"/> 
            <route id="20" edges="c_9 9_10 10_3 3_4 4_5 5_6 6_7 7_8 8_b"/>
            
            <route id="21" edges="f_16 16_15 15_6 6_7 7_8 8_b"/>
            <route id="22" edges="f_16 16_15 15_6 6_14 14_13 13_e"/>
            <route id="23" edges="f_16 16_15 15_6 6_5 5_4 4_3 3_11 11_12 12_d"/>
            <route id="24" edges="f_16 16_15 15_6 6_5 5_4 4_3 3_10 10_9 9_c"/> 
            <route id="25" edges="f_16 16_15 15_6 6_5 5_4 4_3 3_2 2_1 1_a"/>
            
            <route id="26" edges="e_13 13_14 14_6 6_7 7_8 8_b"/>
            <route id="27" edges="e_13 13_14 14_6 6_15 15_16 16_f"/>
            <route id="28" edges="e_13 13_14 14_6 6_5 5_4 4_3 3_11 11_12 12_d"/>
            <route id="29" edges="e_13 13_14 14_6 6_5 5_4 4_3 3_10 10_9 9_c"/> 
            <route id="30" edges="e_13 13_14 14_6 6_5 5_4 4_3 3_2 2_1 1_a"/>	
                        
        
    <vehicle id="0" type="Volkswagen" route="11" depart="7" departLane="free" departSpeed="random" />
    <vehicle id="1" type="Volkswagen" route="17" depart="11" departLane="free" departSpeed="random" />
    <vehicle id="2" type="Volkswagen" route="6" depart="14" departLane="free" departSpeed="random" />
    <vehicle id="3" type="Volkswagen" route="5" depart="17" departLane="free" departSpeed="random" />
    <vehicle id="4" type="Volkswagen" route="17" depart="17" departLane="free" departSpeed="random" />
    <vehicle id="5" type="Volkswagen" route="5" depart="18" departLane="free" departSpeed="random" />
    <vehicle id="6" type="Volkswagen" route="11" depart="21" departLane="free" departSpeed="random" />
    <vehicle id="7" type="Volkswagen" route="8" depart="25" departLane="free" departSpeed="random" />
    <vehicle id="8" type="Volkswagen" route="3" depart="30" departLane="free" departSpeed="random" />
    <vehicle id="9" type="Volkswagen" route="9" depart="32" departLane="free" departSpeed="random" />
    <vehicle id="10" type="Volkswagen" route="8" depart="35" departLane="free" departSpeed="random" />
    <vehicle id="11" type="Volkswagen" route="7" depart="36" departLane="free" departSpeed="random" />
    <vehicle id="12" type="Volkswagen" route="5" depart="45" departLane="free" departSpeed="random" />
    <vehicle id="13" type="Volkswagen" route="22" depart="51" departLane="free" departSpeed="random" />
    <vehicle id="14" type="Volkswagen" route="6" depart="53" departLane="free" departSpeed="random" />
    <vehicle id="15" type="Volkswagen" route="8" depart="54" departLane="free" departSpeed="random" />
    <vehicle id="16" type="Volkswagen" route="2" depart="60" departLane="free" departSpeed="random" />
    <vehicle id="17" type="Volkswagen" route="8" depart="65" departLane="free" departSpeed="random" />
    <vehicle id="18" type="Volkswagen" route="25" depart="65" departLane="free" departSpeed="random" />
    <vehicle id="19" type="Volkswagen" route="9" depart="76" departLane="free" departSpeed="random" />
    <vehicle id="20" type="Volkswagen" route="26" depart="77" departLane="free" departSpeed="random" />
    <vehicle id="21" type="Volkswagen" route="5" depart="92" departLane="free" departSpeed="random" />
    <vehicle id="22" type="Volkswagen" route="22" depart="92" departLane="free" departSpeed="random" />
    <vehicle id="23" type="Volkswagen" route="8" depart="95" departLane="free" departSpeed="random" />
    <vehicle id="24" type="Volkswagen" route="2" depart="97" departLane="free" departSpeed="random" />
    <vehicle id="25" type="Volkswagen" route="5" depart="99" departLane="free" departSpeed="random" />
    <vehicle id="26" type="Volkswagen" route="5" depart="102" departLane="free" departSpeed="random" />
    <vehicle id="27" type="Volkswagen" route="27" depart="102" departLane="free" departSpeed="random" />
    <vehicle id="28" type="Volkswagen" route="7" depart="106" departLane="free" departSpeed="random" />
    <vehicle id="29" type="Volkswagen" route="5" depart="107" departLane="free" departSpeed="random" />
    <vehicle id="30" type="Volkswagen" route="7" depart="107" departLane="free" departSpeed="random" />
    <vehicle id="31" type="Volkswagen" route="8" depart="109" departLane="free" departSpeed="random" />
    <vehicle id="32" type="Volkswagen" route="22" depart="110" departLane="free" departSpeed="random" />
    <vehicle id="33" type="Volkswagen" route="5" depart="111" departLane="free" departSpeed="random" />
    <vehicle id="34" type="Volkswagen" route="9" depart="116" departLane="free" departSpeed="random" />
    <vehicle id="35" type="Volkswagen" route="8" depart="117" departLane="free" departSpeed="random" />
    <vehicle id="36" type="Volkswagen" route="5" depart="122" departLane="free" departSpeed="random" />
    <vehicle id="37" type="Volkswagen" route="8" depart="123" departLane="free" departSpeed="random" />
    <vehicle id="38" type="Volkswagen" route="11" depart="125" departLane="free" departSpeed="random" />
    <vehicle id="39" type="Volkswagen" route="3" depart="126" departLane="free" departSpeed="random" />
    <vehicle id="40" type="Volkswagen" route="8" depart="132" departLane="free" departSpeed="random" />
    <vehicle id="41" type="Volkswagen" route="5" depart="135" departLane="free" departSpeed="random" />
    <vehicle id="42" type="Volkswagen" route="7" depart="135" departLane="free" departSpeed="random" />
    <vehicle id="43" type="Volkswagen" route="11" depart="141" departLane="free" departSpeed="random" />
    <vehicle id="44" type="Volkswagen" route="11" depart="142" departLane="free" departSpeed="random" />
    <vehicle id="45" type="Volkswagen" route="5" depart="153" departLane="free" departSpeed="random" />
    <vehicle id="46" type="Volkswagen" route="5" depart="159" departLane="free" departSpeed="random" />
    <vehicle id="47" type="Volkswagen" route="27" depart="159" departLane="free" departSpeed="random" />
    <vehicle id="48" type="Volkswagen" route="5" depart="161" departLane="free" departSpeed="random" />
    <vehicle id="49" type="Volkswagen" route="5" depart="162" departLane="free" departSpeed="random" />
    <vehicle id="50" type="Volkswagen" route="9" depart="164" departLane="free" departSpeed="random" />
    <vehicle id="51" type="Volkswagen" route="11" depart="172" departLane="free" departSpeed="random" />
    <vehicle id="52" type="Volkswagen" route="11" depart="176" departLane="free" departSpeed="random" />
    <vehicle id="53" type="Volkswagen" route="5" depart="183" departLane="free" departSpeed="random" />
    <vehicle id="54" type="Volkswagen" route="9" depart="184" departLane="free" departSpeed="random" />
    <vehicle id="55" type="Volkswagen" route="22" depart="184" departLane="free" departSpeed="random" />
    <vehicle id="56" type="Volkswagen" route="16" depart="191" departLane="free" departSpeed="random" />
    <vehicle id="57" type="Volkswagen" route="11" depart="203" departLane="free" departSpeed="random" />
    <vehicle id="58" type="Volkswagen" route="22" depart="204" departLane="free" departSpeed="random" />
    <vehicle id="59" type="Volkswagen" route="8" depart="206" departLane="free" departSpeed="random" />
    <vehicle id="60" type="Volkswagen" route="5" depart="207" departLane="free" departSpeed="random" />
    <vehicle id="61" type="Volkswagen" route="6" depart="211" departLane="free" departSpeed="random" />
    <vehicle id="62" type="Volkswagen" route="7" depart="213" departLane="free" departSpeed="random" />
    <vehicle id="63" type="Volkswagen" route="27" depart="213" departLane="free" departSpeed="random" />
    <vehicle id="64" type="Volkswagen" route="8" depart="218" departLane="free" departSpeed="random" />
    <vehicle id="65" type="Volkswagen" route="3" depart="221" departLane="free" departSpeed="random" />
    <vehicle id="66" type="Volkswagen" route="4" depart="223" departLane="free" departSpeed="random" />
    <vehicle id="67" type="Volkswagen" route="2" depart="226" departLane="free" departSpeed="random" />
    <vehicle id="68" type="Volkswagen" route="8" depart="231" departLane="free" departSpeed="random" />
    <vehicle id="69" type="Volkswagen" route="22" depart="232" departLane="free" departSpeed="random" />
    <vehicle id="70" type="Volkswagen" route="6" depart="233" departLane="free" departSpeed="random" />
    <vehicle id="71" type="Volkswagen" route="4" depart="238" departLane="free" departSpeed="random" />
    <vehicle id="72" type="Volkswagen" route="26" depart="245" departLane="free" departSpeed="random" />
    <vehicle id="73" type="Volkswagen" route="8" depart="252" departLane="free" departSpeed="random" />
    <vehicle id="74" type="Volkswagen" route="8" depart="254" departLane="free" departSpeed="random" />
    <vehicle id="75" type="Volkswagen" route="17" depart="262" departLane="free" departSpeed="random" />
    <vehicle id="76" type="Volkswagen" route="3" depart="267" departLane="free" departSpeed="random" />
    <vehicle id="77" type="Volkswagen" route="30" depart="268" departLane="free" departSpeed="random" />
    <vehicle id="78" type="Volkswagen" route="9" depart="276" departLane="free" departSpeed="random" />
    <vehicle id="79" type="Volkswagen" route="9" depart="279" departLane="free" departSpeed="random" />
    <vehicle id="80" type="Volkswagen" route="2" depart="282" departLane="free" departSpeed="random" />
    <vehicle id="81" type="Volkswagen" route="7" depart="287" departLane="free" departSpeed="random" />
    <vehicle id="82" type="Volkswagen" route="5" depart="288" departLane="free" departSpeed="random" />
    <vehicle id="83" type="Volkswagen" route="8" depart="289" departLane="free" departSpeed="random" />
    <vehicle id="84" type="Volkswagen" route="8" depart="296" departLane="free" departSpeed="random" />
    <vehicle id="85" type="Volkswagen" route="17" depart="300" departLane="free" departSpeed="random" />
    <vehicle id="86" type="Volkswagen" route="11" depart="301" departLane="free" departSpeed="random" />
    <vehicle id="87" type="Volkswagen" route="21" depart="301" departLane="free" departSpeed="random" />
    <vehicle id="88" type="Volkswagen" route="22" depart="312" departLane="free" departSpeed="random" />
    <vehicle id="89" type="Volkswagen" route="5" depart="315" departLane="free" departSpeed="random" />
    <vehicle id="90" type="Volkswagen" route="5" depart="319" departLane="free" departSpeed="random" />
    <vehicle id="91" type="Volkswagen" route="8" depart="327" departLane="free" departSpeed="random" />
    <vehicle id="92" type="Volkswagen" route="27" depart="336" departLane="free" departSpeed="random" />
    <vehicle id="93" type="Volkswagen" route="5" depart="337" departLane="free" departSpeed="random" />
    <vehicle id="94" type="Volkswagen" route="6" depart="341" departLane="free" departSpeed="random" />
    <vehicle id="95" type="Volkswagen" route="6" depart="344" departLane="free" departSpeed="random" />
    <vehicle id="96" type="Volkswagen" route="9" depart="353" departLane="free" departSpeed="random" />
    <vehicle id="97" type="Volkswagen" route="10" depart="354" departLane="free" departSpeed="random" />
    <vehicle id="98" type="Volkswagen" route="8" depart="356" departLane="free" departSpeed="random" />
    <vehicle id="99" type="Volkswagen" route="8" depart="357" departLane="free" departSpeed="random" />
    <vehicle id="100" type="Volkswagen" route="11" depart="358" departLane="free" departSpeed="random" />
    <vehicle id="101" type="Volkswagen" route="10" depart="375" departLane="free" departSpeed="random" />
    <vehicle id="102" type="Volkswagen" route="2" depart="378" departLane="free" departSpeed="random" />
    <vehicle id="103" type="Volkswagen" route="8" depart="378" departLane="free" departSpeed="random" />
    <vehicle id="104" type="Volkswagen" route="3" depart="379" departLane="free" departSpeed="random" />
    <vehicle id="105" type="Volkswagen" route="8" depart="379" departLane="free" departSpeed="random" />
    <vehicle id="106" type="Volkswagen" route="22" depart="383" departLane="free" departSpeed="random" />
    <vehicle id="107" type="Volkswagen" route="17" depart="384" departLane="free" departSpeed="random" />
    <vehicle id="108" type="Volkswagen" route="26" depart="384" departLane="free" departSpeed="random" />
    <vehicle id="109" type="Volkswagen" route="3" depart="389" departLane="free" departSpeed="random" />
    <vehicle id="110" type="Volkswagen" route="27" depart="391" departLane="free" departSpeed="random" />
    <vehicle id="111" type="Volkswagen" route="8" depart="393" departLane="free" departSpeed="random" />
    <vehicle id="112" type="Volkswagen" route="17" depart="393" departLane="free" departSpeed="random" />
    <vehicle id="113" type="Volkswagen" route="17" depart="394" departLane="free" departSpeed="random" />
    <vehicle id="114" type="Volkswagen" route="5" depart="403" departLane="free" departSpeed="random" />
    <vehicle id="115" type="Volkswagen" route="3" depart="405" departLane="free" departSpeed="random" />
    <vehicle id="116" type="Volkswagen" route="5" depart="406" departLane="free" departSpeed="random" />
    <vehicle id="117" type="Volkswagen" route="8" depart="417" departLane="free" departSpeed="random" />
    <vehicle id="118" type="Volkswagen" route="4" depart="427" departLane="free" departSpeed="random" />
    <vehicle id="119" type="Volkswagen" route="5" depart="428" departLane="free" departSpeed="random" />
    <vehicle id="120" type="Volkswagen" route="8" depart="431" departLane="free" departSpeed="random" />
    <vehicle id="121" type="Volkswagen" route="8" depart="433" departLane="free" departSpeed="random" />
    <vehicle id="122" type="Volkswagen" route="8" depart="436" departLane="free" departSpeed="random" />
    <vehicle id="123" type="Volkswagen" route="17" depart="441" departLane="free" departSpeed="random" />
    <vehicle id="124" type="Volkswagen" route="5" depart="444" departLane="free" departSpeed="random" />
    <vehicle id="125" type="Volkswagen" route="2" depart="451" departLane="free" departSpeed="random" />
    <vehicle id="126" type="Volkswagen" route="5" depart="462" departLane="free" departSpeed="random" />
    <vehicle id="127" type="Volkswagen" route="6" depart="469" departLane="free" departSpeed="random" />
    <vehicle id="128" type="Volkswagen" route="8" depart="470" departLane="free" departSpeed="random" />
    <vehicle id="129" type="Volkswagen" route="4" depart="471" departLane="free" departSpeed="random" />
    <vehicle id="130" type="Volkswagen" route="11" depart="473" departLane="free" departSpeed="random" />
    <vehicle id="131" type="Volkswagen" route="5" depart="475" departLane="free" departSpeed="random" />
    <vehicle id="132" type="Volkswagen" route="5" depart="479" departLane="free" departSpeed="random" />
    <vehicle id="133" type="Volkswagen" route="6" depart="481" departLane="free" departSpeed="random" />
    <vehicle id="134" type="Volkswagen" route="5" depart="485" departLane="free" departSpeed="random" />
    <vehicle id="135" type="Volkswagen" route="3" depart="486" departLane="free" departSpeed="random" />
    <vehicle id="136" type="Volkswagen" route="4" depart="491" departLane="free" departSpeed="random" />
    <vehicle id="137" type="Volkswagen" route="2" depart="502" departLane="free" departSpeed="random" />
    <vehicle id="138" type="Volkswagen" route="5" depart="504" departLane="free" departSpeed="random" />
    <vehicle id="139" type="Volkswagen" route="8" depart="504" departLane="free" departSpeed="random" />
    <vehicle id="140" type="Volkswagen" route="22" depart="507" departLane="free" departSpeed="random" />
    <vehicle id="141" type="Volkswagen" route="1" depart="511" departLane="free" departSpeed="random" />
    <vehicle id="142" type="Volkswagen" route="3" depart="515" departLane="free" departSpeed="random" />
    <vehicle id="143" type="Volkswagen" route="11" depart="515" departLane="free" departSpeed="random" />
    <vehicle id="144" type="Volkswagen" route="3" depart="522" departLane="free" departSpeed="random" />
    <vehicle id="145" type="Volkswagen" route="11" depart="523" departLane="free" departSpeed="random" />
    <vehicle id="146" type="Volkswagen" route="6" depart="529" departLane="free" departSpeed="random" />
    <vehicle id="147" type="Volkswagen" route="8" depart="529" departLane="free" departSpeed="random" />
    <vehicle id="148" type="Volkswagen" route="16" depart="532" departLane="free" departSpeed="random" />
    <vehicle id="149" type="Volkswagen" route="10" depart="536" departLane="free" departSpeed="random" />
    <vehicle id="150" type="Volkswagen" route="5" depart="537" departLane="free" departSpeed="random" />
    <vehicle id="151" type="Volkswagen" route="8" depart="539" departLane="free" departSpeed="random" />
    <vehicle id="152" type="Volkswagen" route="8" depart="543" departLane="free" departSpeed="random" />
    <vehicle id="153" type="Volkswagen" route="17" depart="544" departLane="free" departSpeed="random" />
    <vehicle id="154" type="Volkswagen" route="9" depart="546" departLane="free" departSpeed="random" />
    <vehicle id="155" type="Volkswagen" route="9" depart="547" departLane="free" departSpeed="random" />
    <vehicle id="156" type="Volkswagen" route="5" depart="549" departLane="free" departSpeed="random" />
    <vehicle id="157" type="Volkswagen" route="22" depart="560" departLane="free" departSpeed="random" />
    <vehicle id="158" type="Volkswagen" route="17" depart="564" departLane="free" departSpeed="random" />
    <vehicle id="159" type="Volkswagen" route="7" depart="568" departLane="free" departSpeed="random" />
    <vehicle id="160" type="Volkswagen" route="27" depart="570" departLane="free" departSpeed="random" />
    <vehicle id="161" type="Volkswagen" route="22" depart="572" departLane="free" departSpeed="random" />
    <vehicle id="162" type="Volkswagen" route="3" depart="574" departLane="free" departSpeed="random" />
    <vehicle id="163" type="Volkswagen" route="7" depart="577" departLane="free" departSpeed="random" />
    <vehicle id="164" type="Volkswagen" route="8" depart="578" departLane="free" departSpeed="random" />
    <vehicle id="165" type="Volkswagen" route="5" depart="585" departLane="free" departSpeed="random" />
    <vehicle id="166" type="Volkswagen" route="6" depart="585" departLane="free" departSpeed="random" />
    <vehicle id="167" type="Volkswagen" route="4" depart="589" departLane="free" departSpeed="random" />
    <vehicle id="168" type="Volkswagen" route="27" depart="590" departLane="free" departSpeed="random" />
    <vehicle id="169" type="Volkswagen" route="11" depart="591" departLane="free" departSpeed="random" />
    <vehicle id="170" type="Volkswagen" route="8" depart="599" departLane="free" departSpeed="random" />
    <vehicle id="171" type="Volkswagen" route="2" depart="601" departLane="free" departSpeed="random" />
    <vehicle id="172" type="Volkswagen" route="17" depart="601" departLane="free" departSpeed="random" />
    <vehicle id="173" type="Volkswagen" route="5" depart="602" departLane="free" departSpeed="random" />
    <vehicle id="174" type="Volkswagen" route="22" depart="610" departLane="free" departSpeed="random" />
    <vehicle id="175" type="Volkswagen" route="21" depart="612" departLane="free" departSpeed="random" />
    <vehicle id="176" type="Volkswagen" route="8" depart="613" departLane="free" departSpeed="random" />
    <vehicle id="177" type="Volkswagen" route="5" depart="620" departLane="free" departSpeed="random" />
    <vehicle id="178" type="Volkswagen" route="20" depart="622" departLane="free" departSpeed="random" />
    <vehicle id="179" type="Volkswagen" route="4" depart="636" departLane="free" departSpeed="random" />
    <vehicle id="180" type="Volkswagen" route="1" depart="642" departLane="free" departSpeed="random" />
    <vehicle id="181" type="Volkswagen" route="2" depart="645" departLane="free" departSpeed="random" />
    <vehicle id="182" type="Volkswagen" route="17" depart="648" departLane="free" departSpeed="random" />
    <vehicle id="183" type="Volkswagen" route="25" depart="648" departLane="free" departSpeed="random" />
    <vehicle id="184" type="Volkswagen" route="8" depart="655" departLane="free" departSpeed="random" />
    <vehicle id="185" type="Volkswagen" route="4" depart="658" departLane="free" departSpeed="random" />
    <vehicle id="186" type="Volkswagen" route="21" depart="660" departLane="free" departSpeed="random" />
    <vehicle id="187" type="Volkswagen" route="5" depart="672" departLane="free" departSpeed="random" />
    <vehicle id="188" type="Volkswagen" route="5" depart="674" departLane="free" departSpeed="random" />
    <vehicle id="189" type="Volkswagen" route="8" depart="675" departLane="free" departSpeed="random" />
    <vehicle id="190" type="Volkswagen" route="5" depart="680" departLane="free" departSpeed="random" />
    <vehicle id="191" type="Volkswagen" route="2" depart="689" departLane="free" departSpeed="random" />
    <vehicle id="192" type="Volkswagen" route="5" depart="690" departLane="free" departSpeed="random" />
    <vehicle id="193" type="Volkswagen" route="8" depart="708" departLane="free" departSpeed="random" />
    <vehicle id="194" type="Volkswagen" route="2" depart="711" departLane="free" departSpeed="random" />
    <vehicle id="195" type="Volkswagen" route="8" depart="717" departLane="free" departSpeed="random" />
    <vehicle id="196" type="Volkswagen" route="11" depart="717" departLane="free" departSpeed="random" />
    <vehicle id="197" type="Volkswagen" route="4" depart="719" departLane="free" departSpeed="random" />
    <vehicle id="198" type="Volkswagen" route="12" depart="724" departLane="free" departSpeed="random" />
    <vehicle id="199" type="Volkswagen" route="5" depart="725" departLane="free" departSpeed="random" />
    <vehicle id="200" type="Volkswagen" route="17" depart="736" departLane="free" departSpeed="random" />
    <vehicle id="201" type="Volkswagen" route="27" depart="736" departLane="free" departSpeed="random" />
    <vehicle id="202" type="Volkswagen" route="1" depart="744" departLane="free" departSpeed="random" />
    <vehicle id="203" type="Volkswagen" route="11" depart="755" departLane="free" departSpeed="random" />
    <vehicle id="204" type="Volkswagen" route="5" depart="758" departLane="free" departSpeed="random" />
    <vehicle id="205" type="Volkswagen" route="8" depart="760" departLane="free" departSpeed="random" />
    <vehicle id="206" type="Volkswagen" route="8" depart="773" departLane="free" departSpeed="random" />
    <vehicle id="207" type="Volkswagen" route="3" depart="776" departLane="free" departSpeed="random" />
    <vehicle id="208" type="Volkswagen" route="25" depart="779" departLane="free" departSpeed="random" />
    <vehicle id="209" type="Volkswagen" route="5" depart="781" departLane="free" departSpeed="random" />
    <vehicle id="210" type="Volkswagen" route="6" depart="789" departLane="free" departSpeed="random" />
    <vehicle id="211" type="Volkswagen" route="8" depart="792" departLane="free" departSpeed="random" />
    <vehicle id="212" type="Volkswagen" route="2" depart="802" departLane="free" departSpeed="random" />
    <vehicle id="213" type="Volkswagen" route="9" depart="807" departLane="free" departSpeed="random" />
    <vehicle id="214" type="Volkswagen" route="27" depart="810" departLane="free" departSpeed="random" />
    <vehicle id="215" type="Volkswagen" route="8" depart="824" departLane="free" departSpeed="random" />
    <vehicle id="216" type="Volkswagen" route="2" depart="826" departLane="free" departSpeed="random" />
    <vehicle id="217" type="Volkswagen" route="17" depart="826" departLane="free" departSpeed="random" />
    <vehicle id="218" type="Volkswagen" route="13" depart="828" departLane="free" departSpeed="random" />
    <vehicle id="219" type="Volkswagen" route="5" depart="829" departLane="free" departSpeed="random" />
    <vehicle id="220" type="Volkswagen" route="8" depart="839" departLane="free" departSpeed="random" />
    <vehicle id="221" type="Volkswagen" route="5" depart="840" departLane="free" departSpeed="random" />
    <vehicle id="222" type="Volkswagen" route="1" depart="845" departLane="free" departSpeed="random" />
    <vehicle id="223" type="Volkswagen" route="27" depart="860" departLane="free" departSpeed="random" />
    <vehicle id="224" type="Volkswagen" route="8" depart="864" departLane="free" departSpeed="random" />
    <vehicle id="225" type="Volkswagen" route="17" depart="865" departLane="free" departSpeed="random" />
    <vehicle id="226" type="Volkswagen" route="5" depart="870" departLane="free" departSpeed="random" />
    <vehicle id="227" type="Volkswagen" route="5" depart="871" departLane="free" departSpeed="random" />
    <vehicle id="228" type="Volkswagen" route="3" depart="875" departLane="free" departSpeed="random" />
    <vehicle id="229" type="Volkswagen" route="7" depart="875" departLane="free" departSpeed="random" />
    <vehicle id="230" type="Volkswagen" route="6" depart="876" departLane="free" departSpeed="random" />
    <vehicle id="231" type="Volkswagen" route="9" depart="876" departLane="free" departSpeed="random" />
    <vehicle id="232" type="Volkswagen" route="8" depart="877" departLane="free" departSpeed="random" />
    <vehicle id="233" type="Volkswagen" route="8" depart="879" departLane="free" departSpeed="random" />
    <vehicle id="234" type="Volkswagen" route="8" depart="885" departLane="free" departSpeed="random" />
    <vehicle id="235" type="Volkswagen" route="25" depart="889" departLane="free" departSpeed="random" />
    <vehicle id="236" type="Volkswagen" route="8" depart="890" departLane="free" departSpeed="random" />
    <vehicle id="237" type="Volkswagen" route="5" depart="902" departLane="free" departSpeed="random" />
    <vehicle id="238" type="Volkswagen" route="2" depart="904" departLane="free" departSpeed="random" />
    <vehicle id="239" type="Volkswagen" route="8" depart="911" departLane="free" departSpeed="random" />
    <vehicle id="240" type="Volkswagen" route="8" depart="914" departLane="free" departSpeed="random" />
    <vehicle id="241" type="Volkswagen" route="28" depart="923" departLane="free" departSpeed="random" />
    <vehicle id="242" type="Volkswagen" route="10" depart="932" departLane="free" departSpeed="random" />
    <vehicle id="243" type="Volkswagen" route="8" depart="949" departLane="free" departSpeed="random" />
    <vehicle id="244" type="Volkswagen" route="2" depart="950" departLane="free" departSpeed="random" />
    <vehicle id="245" type="Volkswagen" route="2" depart="954" departLane="free" departSpeed="random" />
    <vehicle id="246" type="Volkswagen" route="8" depart="954" departLane="free" departSpeed="random" />
    <vehicle id="247" type="Volkswagen" route="8" depart="955" departLane="free" departSpeed="random" />
    <vehicle id="248" type="Volkswagen" route="20" depart="956" departLane="free" departSpeed="random" />
    <vehicle id="249" type="Volkswagen" route="27" depart="961" departLane="free" departSpeed="random" />
    <vehicle id="250" type="Volkswagen" route="10" depart="967" departLane="free" departSpeed="random" />
    <vehicle id="251" type="Volkswagen" route="21" depart="968" departLane="free" departSpeed="random" />
    <vehicle id="252" type="Volkswagen" route="8" depart="973" departLane="free" departSpeed="random" />
    <vehicle id="253" type="Volkswagen" route="27" depart="981" departLane="free" departSpeed="random" />
    <vehicle id="254" type="Volkswagen" route="9" depart="989" departLane="free" departSpeed="random" />
    <vehicle id="255" type="Volkswagen" route="16" depart="989" departLane="free" departSpeed="random" />
    <vehicle id="256" type="Volkswagen" route="5" depart="1003" departLane="free" departSpeed="random" />
    <vehicle id="257" type="Volkswagen" route="5" depart="1010" departLane="free" departSpeed="random" />
    <vehicle id="258" type="Volkswagen" route="16" depart="1011" departLane="free" departSpeed="random" />
    <vehicle id="259" type="Volkswagen" route="2" depart="1025" departLane="free" departSpeed="random" />
    <vehicle id="260" type="Volkswagen" route="6" depart="1025" departLane="free" departSpeed="random" />
    <vehicle id="261" type="Volkswagen" route="6" depart="1032" departLane="free" departSpeed="random" />