<routes>
        
            <vType id="Volkswagen" accel="2.3" decel="4.5" sigma="0.5" length="4.0" maxSpeed="60" color="124,252,0" vClass="private" emissionClass="P_7_7"/>  
        
            <route id="1" edges="a_1 1_2 2_3 3_10 10_9 9_c"/>
            <route id="2" edges="a_1 1_2 2_3 3_11 11_12 12_d"/>
            <route id="3" edges="a_1 1_2 2_3 3_4 4_5 5_6 6_14 14_13 13_e"/>
            <route id="4" edges="a_1 1_2 2_3 3_4 4_5 5_6 6_15 15_16 16_f"/>
            <route id="5" edges="a_1 1_2 2_3 3_4 4_5 5_6 6_7 7_8 8_b"/>

            <route id="6" edges="b_8 8_7 7_6 6_15 15_16 16_f"/>
            <route id="7" edges="b_8 8_7 7_6 6_14 14_13 13_e"/>
            <route id="8" edges="b_8 8_7 7_6 6_5 5_4 4_3 3_2 2_1 1_a"/>
            <route id="9" edges="b_8 8_7 7_6 6_5 5_4 4_3 3_11 11_12 12_d"/> 
            <route id="10" edges="b_8 8_7 7_6 6_5 5_4 4_3 3_10 10_9 9_c"/>
            
            <route id="11" edges="d_12 12_11 11_3 3_10 10_9 9_c"/>
            <route id="12" edges="d_12 12_11 11_3  3_2 2_1 1_a "/>
            <route id="13" edges="d_12 12_11 11_3 3_4 4_5 5_6 6_7 7_8 8_b"/>
            <route id="14" edges="d_12 12_11 11_3  3_4 4_5 5_6 6_15 15_16 16_f"/> 
            <route id="15" edges="d_12 12_11 11_3 3_4 4_5 5_6 6_14 14_13 13_e"/>
            
            <route id="16" edges="c_9 9_10 10_3 3_2 2_1 1_a"/>
            <route id="17" edges="c_9 9_10 10_3 3_11 11_12 12_d"/>
            <route id="18" edges="c_9 9_10 10_3 3_4 4_5 5_6 6_15 15_16 16_f"/>
            <route id="19" edges="c_9 9_10 10_3 3_4 4_5 5_6 6_14 14_13 13_e"/> 
            <route id="20" edges="c_9 9_10 10_3 3_4 4_5 5_6 6_7 7_8 8_b"/>
            
            <route id="21" edges="f_16 16_15 15_6 6_7 7_8 8_b"/>
            <route id="22" edges="f_16 16_15 15_6 6_14 14_13 13_e"/>
            <route id="23" edges="f_16 16_15 15_6 6_5 5_4 4_3 3_11 11_12 12_d"/>
            <route id="24" edges="f_16 16_15 15_6 6_5 5_4 4_3 3_10 10_9 9_c"/> 
            <route id="25" edges="f_16 16_15 15_6 6_5 5_4 4_3 3_2 2_1 1_a"/>
            
            <route id="26" edges="e_13 13_14 14_6 6_7 7_8 8_b"/>
            <route id="27" edges="e_13 13_14 14_6 6_15 15_16 16_f"/>
            <route id="28" edges="e_13 13_14 14_6 6_5 5_4 4_3 3_11 11_12 12_d"/>
            <route id="29" edges="e_13 13_14 14_6 6_5 5_4 4_3 3_10 10_9 9_c"/> 
            <route id="30" edges="e_13 13_14 14_6 6_5 5_4 4_3 3_2 2_1 1_a"/>	
                        
        
    <vehicle id="0" type="Volkswagen" route="27" depart="2" departLane="free" departSpeed="random" />
    <vehicle id="1" type="Volkswagen" route="27" depart="19" departLane="free" departSpeed="random" />
    <vehicle id="2" type="Volkswagen" route="5" depart="25" departLane="free" departSpeed="random" />
    <vehicle id="3" type="Volkswagen" route="5" depart="27" departLane="free" departSpeed="random" />
    <vehicle id="4" type="Volkswagen" route="8" depart="29" departLane="free" departSpeed="random" />
    <vehicle id="5" type="Volkswagen" route="27" depart="33" departLane="free" departSpeed="random" />
    <vehicle id="6" type="Volkswagen" route="22" depart="43" departLane="free" departSpeed="random" />
    <vehicle id="7" type="Volkswagen" route="5" depart="44" departLane="free" departSpeed="random" />
    <vehicle id="8" type="Volkswagen" route="27" depart="44" departLane="free" departSpeed="random" />
    <vehicle id="9" type="Volkswagen" route="8" depart="47" departLane="free" departSpeed="random" />
    <vehicle id="10" type="Volkswagen" route="22" depart="60" departLane="free" departSpeed="random" />
    <vehicle id="11" type="Volkswagen" route="5" depart="66" departLane="free" departSpeed="random" />
    <vehicle id="12" type="Volkswagen" route="4" depart="67" departLane="free" departSpeed="random" />
    <vehicle id="13" type="Volkswagen" route="27" depart="67" departLane="free" departSpeed="random" />
    <vehicle id="14" type="Volkswagen" route="3" depart="69" departLane="free" departSpeed="random" />
    <vehicle id="15" type="Volkswagen" route="11" depart="71" departLane="free" departSpeed="random" />
    <vehicle id="16" type="Volkswagen" route="5" depart="73" departLane="free" departSpeed="random" />
    <vehicle id="17" type="Volkswagen" route="8" depart="80" departLane="free" departSpeed="random" />
    <vehicle id="18" type="Volkswagen" route="1" depart="84" departLane="free" departSpeed="random" />
    <vehicle id="19" type="Volkswagen" route="5" depart="92" departLane="free" departSpeed="random" />
    <vehicle id="20" type="Volkswagen" route="6" depart="95" departLane="free" departSpeed="random" />
    <vehicle id="21" type="Volkswagen" route="8" depart="96" departLane="free" departSpeed="random" />
    <vehicle id="22" type="Volkswagen" route="8" depart="98" departLane="free" departSpeed="random" />
    <vehicle id="23" type="Volkswagen" route="5" depart="103" departLane="free" departSpeed="random" />
    <vehicle id="24" type="Volkswagen" route="11" depart="111" departLane="free" departSpeed="random" />
    <vehicle id="25" type="Volkswagen" route="17" depart="111" departLane="free" departSpeed="random" />
    <vehicle id="26" type="Volkswagen" route="6" depart="113" departLane="free" departSpeed="random" />
    <vehicle id="27" type="Volkswagen" route="22" depart="129" departLane="free" departSpeed="random" />
    <vehicle id="28" type="Volkswagen" route="17" depart="136" departLane="free" departSpeed="random" />
    <vehicle id="29" type="Volkswagen" route="3" depart="149" departLane="free" departSpeed="random" />
    <vehicle id="30" type="Volkswagen" route="5" depart="150" departLane="free" departSpeed="random" />
    <vehicle id="31" type="Volkswagen" route="8" depart="162" departLane="free" departSpeed="random" />
    <vehicle id="32" type="Volkswagen" route="27" depart="173" departLane="free" departSpeed="random" />
    <vehicle id="33" type="Volkswagen" route="5" depart="177" departLane="free" departSpeed="random" />
    <vehicle id="34" type="Volkswagen" route="11" depart="184" departLane="free" departSpeed="random" />
    <vehicle id="35" type="Volkswagen" route="5" depart="187" departLane="free" departSpeed="random" />
    <vehicle id="36" type="Volkswagen" route="26" depart="188" departLane="free" departSpeed="random" />
    <vehicle id="37" type="Volkswagen" route="8" depart="195" departLane="free" departSpeed="random" />
    <vehicle id="38" type="Volkswagen" route="8" depart="202" departLane="free" departSpeed="random" />
    <vehicle id="39" type="Volkswagen" route="11" depart="204" departLane="free" departSpeed="random" />
    <vehicle id="40" type="Volkswagen" route="11" depart="214" departLane="free" departSpeed="random" />
    <vehicle id="41" type="Volkswagen" route="27" depart="217" departLane="free" departSpeed="random" />
    <vehicle id="42" type="Volkswagen" route="8" depart="218" departLane="free" departSpeed="random" />
    <vehicle id="43" type="Volkswagen" route="13" depart="220" departLane="free" departSpeed="random" />
    <vehicle id="44" type="Volkswagen" route="27" depart="221" departLane="free" departSpeed="random" />
    <vehicle id="45" type="Volkswagen" route="2" depart="224" departLane="free" departSpeed="random" />
    <vehicle id="46" type="Volkswagen" route="26" depart="227" departLane="free" departSpeed="random" />
    <vehicle id="47" type="Volkswagen" route="1" depart="235" departLane="free" departSpeed="random" />
    <vehicle id="48" type="Volkswagen" route="3" depart="235" departLane="free" departSpeed="random" />
    <vehicle id="49" type="Volkswagen" route="6" depart="247" departLane="free" departSpeed="random" />
    <vehicle id="50" type="Volkswagen" route="8" depart="249" departLane="free" departSpeed="random" />
    <vehicle id="51" type="Volkswagen" route="8" depart="250" departLane="free" departSpeed="random" />
    <vehicle id="52" type="Volkswagen" route="22" depart="251" departLane="free" departSpeed="random" />
    <vehicle id="53" type="Volkswagen" route="22" depart="260" departLane="free" departSpeed="random" />
    <vehicle id="54" type="Volkswagen" route="4" depart="261" departLane="free" departSpeed="random" />
    <vehicle id="55" type="Volkswagen" route="17" depart="265" departLane="free" departSpeed="random" />
    <vehicle id="56" type="Volkswagen" route="8" depart="267" departLane="free" departSpeed="random" />
    <vehicle id="57" type="Volkswagen" route="22" depart="288" departLane="free" departSpeed="random" />
    <vehicle id="58" type="Volkswagen" route="8" depart="290" departLane="free" departSpeed="random" />
    <vehicle id="59" type="Volkswagen" route="5" depart="293" departLane="free" departSpeed="random" />
    <vehicle id="60" type="Volkswagen" route="27" depart="294" departLane="free" departSpeed="random" />
    <vehicle id="61" type="Volkswagen" route="8" depart="295" departLane="free" departSpeed="random" />
    <vehicle id="62" type="Volkswagen" route="3" depart="300" departLane="free" departSpeed="random" />
    <vehicle id="63" type="Volkswagen" route="8" depart="301" departLane="free" departSpeed="random" />
    <vehicle id="64" type="Volkswagen" route="2" depart="302" departLane="free" departSpeed="random" />
    <vehicle id="65" type="Volkswagen" route="5" depart="304" departLane="free" departSpeed="random" />
    <vehicle id="66" type="Volkswagen" route="8" depart="304" departLane="free" departSpeed="random" />
    <vehicle id="67" type="Volkswagen" route="9" depart="304" departLane="free" departSpeed="random" />
    <vehicle id="68" type="Volkswagen" route="17" depart="305" departLane="free" departSpeed="random" />
    <vehicle id="69" type="Volkswagen" route="8" depart="311" departLane="free" departSpeed="random" />
    <vehicle id="70" type="Volkswagen" route="11" depart="332" departLane="free" departSpeed="random" />
    <vehicle id="71" type="Volkswagen" route="2" depart="334" departLane="free" departSpeed="random" />
    <vehicle id="72" type="Volkswagen" route="5" depart="335" departLane="free" departSpeed="random" />
    <vehicle id="73" type="Volkswagen" route="22" depart="341" departLane="free" departSpeed="random" />
    <vehicle id="74" type="Volkswagen" route="8" depart="342" departLane="free" departSpeed="random" />
    <vehicle id="75" type="Volkswagen" route="17" depart="342" departLane="free" departSpeed="random" />
    <vehicle id="76" type="Volkswagen" route="22" depart="343" departLane="free" departSpeed="random" />
    <vehicle id="77" type="Volkswagen" route="5" depart="349" departLane="free" departSpeed="random" />
    <vehicle id="78" type="Volkswagen" route="4" depart="355" departLane="free" departSpeed="random" />
    <vehicle id="79" type="Volkswagen" route="10" depart="362" departLane="free" departSpeed="random" />
    <vehicle id="80" type="Volkswagen" route="5" depart="368" departLane="free" departSpeed="random" />
    <vehicle id="81" type="Volkswagen" route="10" depart="368" departLane="free" departSpeed="random" />
    <vehicle id="82" type="Volkswagen" route="5" depart="369" departLane="free" departSpeed="random" />
    <vehicle id="83" type="Volkswagen" route="8" depart="380" departLane="free" departSpeed="random" />
    <vehicle id="84" type="Volkswagen" route="5" depart="385" departLane="free" departSpeed="random" />
    <vehicle id="85" type="Volkswagen" route="8" depart="387" departLane="free" departSpeed="random" />
    <vehicle id="86" type="Volkswagen" route="8" depart="396" departLane="free" departSpeed="random" />
    <vehicle id="87" type="Volkswagen" route="8" depart="401" departLane="free" departSpeed="random" />
    <vehicle id="88" type="Volkswagen" route="8" depart="404" departLane="free" departSpeed="random" />
    <vehicle id="89" type="Volkswagen" route="7" depart="411" departLane="free" departSpeed="random" />
    <vehicle id="90" type="Volkswagen" route="10" depart="414" departLane="free" departSpeed="random" />
    <vehicle id="91" type="Volkswagen" route="10" depart="417" departLane="free" departSpeed="random" />
    <vehicle id="92" type="Volkswagen" route="5" depart="425" departLane="free" departSpeed="random" />
    <vehicle id="93" type="Volkswagen" route="4" depart="429" departLane="free" departSpeed="random" />
    <vehicle id="94" type="Volkswagen" route="22" depart="440" departLane="free" departSpeed="random" />
    <vehicle id="95" type="Volkswagen" route="5" depart="442" departLane="free" departSpeed="random" />
    <vehicle id="96" type="Volkswagen" route="5" depart="446" departLane="free" departSpeed="random" />
    <vehicle id="97" type="Volkswagen" route="1" depart="447" departLane="free" departSpeed="random" />
    <vehicle id="98" type="Volkswagen" route="5" depart="449" departLane="free" departSpeed="random" />
    <vehicle id="99" type="Volkswagen" route="5" depart="458" departLane="free" departSpeed="random" />
    <vehicle id="100" type="Volkswagen" route="3" depart="461" departLane="free" departSpeed="random" />
    <vehicle id="101" type="Volkswagen" route="5" depart="461" departLane="free" departSpeed="random" />
    <vehicle id="102" type="Volkswagen" route="8" depart="470" departLane="free" departSpeed="random" />
    <vehicle id="103" type="Volkswagen" route="5" depart="471" departLane="free" departSpeed="random" />
    <vehicle id="104" type="Volkswagen" route="3" depart="474" departLane="free" departSpeed="random" />
    <vehicle id="105" type="Volkswagen" route="5" depart="479" departLane="free" departSpeed="random" />
    <vehicle id="106" type="Volkswagen" route="2" depart="483" departLane="free" departSpeed="random" />
    <vehicle id="107" type="Volkswagen" route="3" depart="485" departLane="free" departSpeed="random" />
    <vehicle id="108" type="Volkswagen" route="5" depart="487" departLane="free" departSpeed="random" />
    <vehicle id="109" type="Volkswagen" route="27" depart="514" departLane="free" departSpeed="random" />
    <vehicle id="110" type="Volkswagen" route="3" depart="515" departLane="free" departSpeed="random" />
    <vehicle id="111" type="Volkswagen" route="30" depart="515" departLane="free" departSpeed="random" />
    <vehicle id="112" type="Volkswagen" route="9" depart="524" departLane="free" departSpeed="random" />
    <vehicle id="113" type="Volkswagen" route="8" depart="532" departLane="free" departSpeed="random" />
    <vehicle id="114" type="Volkswagen" route="5" depart="534" departLane="free" departSpeed="random" />
    <vehicle id="115" type="Volkswagen" route="8" depart="535" departLane="free" departSpeed="random" />
    <vehicle id="116" type="Volkswagen" route="22" depart="540" departLane="free" departSpeed="random" />
    <vehicle id="117" type="Volkswagen" route="5" depart="542" departLane="free" departSpeed="random" />
    <vehicle id="118" type="Volkswagen" route="26" depart="547" departLane="free" departSpeed="random" />
    <vehicle id="119" type="Volkswagen" route="8" depart="548" departLane="free" departSpeed="random" />
    <vehicle id="120" type="Volkswagen" route="3" depart="553" departLane="free" departSpeed="random" />
    <vehicle id="121" type="Volkswagen" route="27" depart="553" departLane="free" departSpeed="random" />
    <vehicle id="122" type="Volkswagen" route="5" depart="565" departLane="free" departSpeed="random" />
    <vehicle id="123" type="Volkswagen" route="8" depart="567" departLane="free" departSpeed="random" />
    <vehicle id="124" type="Volkswagen" route="26" depart="567" departLane="free" departSpeed="random" />
    <vehicle id="125" type="Volkswagen" route="11" depart="570" departLane="free" departSpeed="random" />
    <vehicle id="126" type="Volkswagen" route="8" depart="572" departLane="free" departSpeed="random" />
    <vehicle id="127" type="Volkswagen" route="17" depart="580" departLane="free" departSpeed="random" />
    <vehicle id="128" type="Volkswagen" route="5" depart="589" departLane="free" departSpeed="random" />
    <vehicle id="129" type="Volkswagen" route="8" depart="598" departLane="free" departSpeed="random" />
    <vehicle id="130" type="Volkswagen" route="17" depart="607" departLane="free" departSpeed="random" />
    <vehicle id="131" type="Volkswagen" route="2" depart="608" departLane="free" departSpeed="random" />
    <vehicle id="132" type="Volkswagen" route="5" depart="608" departLane="free" departSpeed="random" />
    <vehicle id="133" type="Volkswagen" route="11" depart="610" departLane="free" departSpeed="random" />
    <vehicle id="134" type="Volkswagen" route="5" depart="626" departLane="free" departSpeed="random" />
    <vehicle id="135" type="Volkswagen" route="11" depart="633" departLane="free" departSpeed="random" />
    <vehicle id="136" type="Volkswagen" route="4" depart="641" departLane="free" departSpeed="random" />
    <vehicle id="137" type="Volkswagen" route="7" depart="644" departLane="free" departSpeed="random" />
    <vehicle id="138" type="Volkswagen" route="8" depart="648" departLane="free" departSpeed="random" />
    <vehicle id="139" type="Volkswagen" route="10" depart="649" departLane="free" departSpeed="random" />
    <vehicle id="140" type="Volkswagen" route="3" depart="665" departLane="free" departSpeed="random" />
    <vehicle id="141" type="Volkswagen" route="11" depart="665" departLane="free" departSpeed="random" />
    <vehicle id="142" type="Volkswagen" route="8" depart="669" departLane="free" departSpeed="random" />
    <vehicle id="143" type="Volkswagen" route="11" depart="670" departLane="free" departSpeed="random" />
    <vehicle id="144" type="Volkswagen" route="8" depart="671" departLane="free" departSpeed="random" />
    <vehicle id="145" type="Volkswagen" route="8" depart="676" departLane="free" departSpeed="random" />
    <vehicle id="146" type="Volkswagen" route="8" depart="679" departLane="free" departSpeed="random" />
    <vehicle id="147" type="Volkswagen" route="22" depart="682" departLane="free" departSpeed="random" />
    <vehicle id="148" type="Volkswagen" route="8" depart="698" departLane="free" departSpeed="random" />
    <vehicle id="149" type="Volkswagen" route="1" depart="705" departLane="free" departSpeed="random" />
    <vehicle id="150" type="Volkswagen" route="11" depart="709" departLane="free" departSpeed="random" />
    <vehicle id="151" type="Volkswagen" route="8" depart="715" departLane="free" departSpeed="random" />
    <vehicle id="152" type="Volkswagen" route="5" depart="722" departLane="free" departSpeed="random" />
    <vehicle id="153" type="Volkswagen" route="2" depart="743" departLane="free" departSpeed="random" />
    <vehicle id="154" type="Volkswagen" route="9" depart="745" departLane="free" departSpeed="random" />
    <vehicle id="155" type="Volkswagen" route="11" depart="755" departLane="free" departSpeed="random" />
    <vehicle id="156" type="Volkswagen" route="11" depart="761" departLane="free" departSpeed="random" />
    <vehicle id="157" type="Volkswagen" route="6" depart="765" departLane="free" departSpeed="random" />
    <vehicle id="158" type="Volkswagen" route="22" depart="769" departLane="free" departSpeed="random" />
    <vehicle id="159" type="Volkswagen" route="5" depart="773" departLane="free" departSpeed="random" />
    <vehicle id="160" type="Volkswagen" route="8" depart="774" departLane="free" departSpeed="random" />
    <vehicle id="161" type="Volkswagen" route="8" depart="776" departLane="free" departSpeed="random" />
    <vehicle id="162" type="Volkswagen" route="4" depart="780" departLane="free" departSpeed="random" />
    <vehicle id="163" type="Volkswagen" route="8" depart="796" departLane="free" departSpeed="random" />
    <vehicle id="164" type="Volkswagen" route="22" depart="798" departLane="free" departSpeed="random" />
    <vehicle id="165" type="Volkswagen" route="5" depart="806" departLane="free" departSpeed="random" />
    <vehicle id="166" type="Volkswagen" route="27" depart="808" departLane="free" departSpeed="random" />
    <vehicle id="167" type="Volkswagen" route="8" depart="824" departLane="free" departSpeed="random" />
    <vehicle id="168" type="Volkswagen" route="17" depart="825" departLane="free" departSpeed="random" />
    <vehicle id="169" type="Volkswagen" route="8" depart="828" departLane="free" departSpeed="random" />
    <vehicle id="170" type="Volkswagen" route="22" depart="829" departLane="free" departSpeed="random" />
    <vehicle id="171" type="Volkswagen" route="4" depart="854" departLane="free" departSpeed="random" />
    <vehicle id="172" type="Volkswagen" route="8" depart="854" departLane="free" departSpeed="random" />
    <vehicle id="173" type="Volkswagen" route="8" depart="862" departLane="free" departSpeed="random" />
    <vehicle id="174" type="Volkswagen" route="8" depart="864" departLane="free" departSpeed="random" />
    <vehicle id="175" type="Volkswagen" route="5" depart="869" departLane="free" departSpeed="random" />
    <vehicle id="176" type="Volkswagen" route="8" depart="871" departLane="free" departSpeed="random" />
    <vehicle id="177" type="Volkswagen" route="8" depart="877" departLane="free" departSpeed="random" />
    <vehicle id="178" type="Volkswagen" route="2" depart="890" departLane="free" departSpeed="random" />
    <vehicle id="179" type="Volkswagen" route="5" depart="891" departLane="free" departSpeed="random" />
    <vehicle id="180" type="Volkswagen" route="5" depart="898" departLane="free" departSpeed="random" />
    <vehicle id="181" type="Volkswagen" route="8" depart="903" departLane="free" departSpeed="random" />
    <vehicle id="182" type="Volkswagen" route="25" depart="906" departLane="free" departSpeed="random" />
    <vehicle id="183" type="Volkswagen" route="16" depart="909" departLane="free" departSpeed="random" />
    <vehicle id="184" type="Volkswagen" route="8" depart="910" departLane="free" departSpeed="random" />
    <vehicle id="185" type="Volkswagen" route="8" depart="911" departLane="free" departSpeed="random" />
    <vehicle id="186" type="Volkswagen" route="25" depart="914" departLane="free" departSpeed="random" />
    <vehicle id="187" type="Volkswagen" route="27" depart="917" departLane="free" departSpeed="random" />
    <vehicle id="188" type="Volkswagen" route="4" depart="931" departLane="free" departSpeed="random" />
    <vehicle id="189" type="Volkswagen" route="30" depart="931" departLane="free" departSpeed="random" />
    <vehicle id="190" type="Volkswagen" route="7" depart="936" departLane="free" departSpeed="random" />
    <vehicle id="191" type="Volkswagen" route="17" depart="937" departLane="free" departSpeed="random" />
    <vehicle id="192" type="Volkswagen" route="26" depart="939" departLane="free" departSpeed="random" />
    <vehicle id="193" type="Volkswagen" route="5" depart="948" departLane="free" departSpeed="random" />
    <vehicle id="194" type="Volkswagen" route="5" depart="956" departLane="free" departSpeed="random" />
    <vehicle id="195" type="Volkswagen" route="20" depart="959" departLane="free" departSpeed="random" />
    <vehicle id="196" type="Volkswagen" route="5" depart="972" departLane="free" departSpeed="random" />
    <vehicle id="197" type="Volkswagen" route="2" depart="973" departLane="free" departSpeed="random" />
    <vehicle id="198" type="Volkswagen" route="8" depart="973" departLane="free" departSpeed="random" />
    <vehicle id="199" type="Volkswagen" route="7" depart="978" departLane="free" departSpeed="random" />
    <vehicle id="200" type="Volkswagen" route="5" depart="981" departLane="free" departSpeed="random" />
    <vehicle id="201" type="Volkswagen" route="17" depart="981" departLane="free" departSpeed="random" />
    <vehicle id="202" type="Volkswagen" route="11" depart="986" departLane="free" departSpeed="random" />
    <vehicle id="203" type="Volkswagen" route="11" depart="987" departLane="free" departSpeed="random" />
    <vehicle id="204" type="Volkswagen" route="5" depart="990" departLane="free" departSpeed="random" />
    <vehicle id="205" type="Volkswagen" route="5" depart="991" departLane="free" departSpeed="random" />
    <vehicle id="206" type="Volkswagen" route="27" depart="991" departLane="free" departSpeed="random" />
    <vehicle id="207" type="Volkswagen" route="8" depart="997" departLane="free" departSpeed="random" />
    <vehicle id="208" type="Volkswagen" route="27" depart="1000" departLane="free" departSpeed="random" />
    <vehicle id="209" type="Volkswagen" route="17" depart="1001" departLane="free" departSpeed="random" />
    <vehicle id="210" type="Volkswagen" route="26" depart="1001" departLane="free" departSpeed="random" />
    <vehicle id="211" type="Volkswagen" route="6" depart="1026" departLane="free" departSpeed="random" />
    <vehicle id="212" type="Volkswagen" route="5" depart="1032" departLane="free" departSpeed="random" />
    <vehicle id="213" type="Volkswagen" route="10" depart="1048" departLane="free" departSpeed="random" />
    <vehicle id="214" type="Volkswagen" route="22" depart="1070" departLane="free" departSpeed="random" />
    <vehicle id="215" type="Volkswagen" route="8" depart="1077" departLane="free" departSpeed="random" />
    <vehicle id="216" type="Volkswagen" route="7" depart="1088" departLane="free" departSpeed="random" />
    <vehicle id="217" type="Volkswagen" route="1" depart="1104" departLane="free" departSpeed="random" />
    <vehicle id="218" type="Volkswagen" route="2" depart="1109" departLane="free" departSpeed="random" />
    <vehicle id="219" type="Volkswagen" route="9" depart="1114" departLane="free" departSpeed="random" />
    <vehicle id="220" type="Volkswagen" route="26" depart="1122" departLane="free" departSpeed="random" />
    <vehicle id="221" type="Volkswagen" route="11" depart="1125" departLane="free" departSpeed="random" />
    <vehicle id="222" type="Volkswagen" route="8" depart="1127" departLane="free" departSpeed="random" />
    <vehicle id="223" type="Volkswagen" route="2" depart="1135" departLane="free" departSpeed="random" />
    <vehicle id="224" type="Volkswagen" route="8" depart="1135" departLane="free" departSpeed="random" />
    <vehicle id="225" type="Volkswagen" route="5" depart="1137" departLane="free" departSpeed="random" />
    <vehicle id="226" type="Volkswagen" route="9" depart="1138" departLane="free" departSpeed="random" />
    <vehicle id="227" type="Volkswagen" route="5" depart="1139" departLane="free" departSpeed="random" />
    <vehicle id="228" type="Volkswagen" route="5" depart="1140" departLane="free" departSpeed="random" />
    <vehicle id="229" type="Volkswagen" route="5" depart="1144" departLane="free" departSpeed="random" />
    <vehicle id="230" type="Volkswagen" route="8" depart="1153" departLane="free" departSpeed="random" />
    <vehicle id="231" type="Volkswagen" route="8" depart="1160" departLane="free" departSpeed="random" />
    <vehicle id="232" type="Volkswagen" route="22" depart="1160" departLane="free" departSpeed="random" />
    <vehicle id="233" type="Volkswagen" route="3" depart="1168" departLane="free" departSpeed="random" />
    <vehicle id="234" type="Volkswagen" route="3" depart="1175" departLane="free" departSpeed="random" />
    <vehicle id="235" type="Volkswagen" route="22" depart="1192" departLane="free" departSpeed="random" />
    <vehicle id="236" type="Volkswagen" route="5" depart="1199" departLane="free" departSpeed="random" />
    <vehicle id="237" type="Volkswagen" route="2" depart="1203" departLane="free" departSpeed="random" />
    <vehicle id="238" type="Volkswagen" route="11" depart="1204" departLane="free" departSpeed="random" />
    <vehicle id="239" type="Volkswagen" route="11" depart="1206" departLane="free" departSpeed="random" />
    <vehicle id="240" type="Volkswagen" route="8" depart="1218" departLane="free" departSpeed="random" />
    <vehicle id="241" type="Volkswagen" route="5" depart="1237" departLane="free" departSpeed="random" />
    <vehicle id="242" type="Volkswagen" route="27" depart="1244" departLane="free" departSpeed="random" />
    <vehicle id="243" type="Volkswagen" route="5" depart="1247" departLane="free" departSpeed="random" />
    <vehicle id="244" type="Volkswagen" route="4" depart="1252" departLane="free" departSpeed="random" />
    <vehicle id="245" type="Volkswagen" route="12" depart="1253" departLane="free" departSpeed="random" />
    <vehicle id="246" type="Volkswagen" route="26" depart="1260" departLane="free" departSpeed="random" />
    <vehicle id="247" type="Volkswagen" route="27" depart="1281" departLane="free" departSpeed="random" />
    <vehicle id="248" type="Volkswagen" route="27" depart="1284" departLane="free" departSpeed="random" />
    <vehicle id="249" type="Volkswagen" route="17" depart="1290" departLane="free" departSpeed="random" />
    <vehicle id="250" type="Volkswagen" route="5" depart="1291" departLane="free" departSpeed="random" />
    <vehicle id="251" type="Volkswagen" route="7" depart="1291" departLane="free" departSpeed="random" />
    <vehicle id="252" type="Volkswagen" route="11" depart="1298" departLane="free" departSpeed="random" />
    <vehicle id="253" type="Volkswagen" route="10" depart="1299" departLane="free" departSpeed="random" />
    <vehicle id="254" type="Volkswagen" route="5" depart="1315" departLane="free" departSpeed="random" />
    <vehicle id="255" type="Volkswagen" route="8" depart="1328" departLane="free" departSpeed="random" />
    <vehicle id="256" type="Volkswagen" route="8" depart="1332" departLane="free" departSpeed="random" />
    <vehicle id="257" type="Volkswagen" route="5" depart="1342" departLane="free" departSpeed="random" />
    <vehicle id="258" type="Volkswagen" route="10" depart="1343" departLane="free" departSpeed="random" />
    <vehicle id="259" type="Volkswagen" route="4" depart="1346" departLane="free" departSpeed="random" />
    <vehicle id="260" type="Volkswagen" route="22" depart="1353" departLane="free" departSpeed="random" />
    <vehicle id="261" type="Volkswagen" route="8" depart="1356" departLane="free" departSpeed="random" />