<routes>
        
            <vType id="Raleigh" accel="2.0" decel="3.0" sigma="0.5" length="2.5" maxSpeed="5.6" color="0,255,255" guiShape="bicycle" vClass="bicycle"/>  
        
            <route id="l" edges="a_g g_3 3_c"/>     
            <route id="ll" edges="a_g g_3 3_h h_3 3_d"/>   
            <route id="lll" edges="a_g g_3 3_k k_6 6_e"/>  
            <route id="lV" edges="a_g g_3 3_k k_6 6_l l_6 6_f"/>   
            <route id="V" edges="a_g g_3 3_k k_6 6_b"/>    
		
            <route id="Vl" edges="b_m m_6 6_f"/>   
            <route id="Vll" edges="b_m m_6 6_n n_6 6_e"/>  
            <route id="Vlll" edges="b_m m_6 6_i i_3 3_a"/>   
            <route id="lX" edges="b_m m_6 6_i i_3 3_d"/>     
            <route id="X" edges="b_m m_6 6_i i_3 3_j j_3 3_c"/>      
                        
            <route id="Xl" edges="d_j j_3 3_c"/>           
            <route id="Xll" edges="d_j j_3 3_a"/>        
            <route id="Xlll" edges="d_j j_3 3_g g_3 3_k k_6 6_b"/>     
            <route id="XlV" edges="d_j j_3 3_g g_3 3_k k_6 6_l l_6 6_f"/>     
            <route id="XV" edges="d_j j_3 3_g g_3 3_k k_6 6_e"/>  
                   
            <route id="XVl" edges="c_h h_3 3_i i_3 3_a"/>           
            <route id="XVll" edges="c_h h_3 3_d"/>          
            <route id="XVlll" edges="c_h h_3 3_k k_6 6_l l_6 6_f"/>      
            <route id="XlX" edges="c_h h_3 3_k k_6 6_e"/>       
            <route id="XX" edges="c_h h_3 3_k k_6 6_b"/>        
            
            <route id="XXl" edges="f_n n_6 6_k k_6 6_b"/>                         
            <route id="XXll" edges="f_n n_6 6_e"/>             
            <route id="XXlll" edges="f_n n_6 6_i i_3 3_d"/>         
            <route id="XXlV" edges="f_n n_6 6_i i_3 3_j j_3 3_c"/>         
            <route id="XXV" edges="f_n n_6 6_i i_3 3_a"/>             
            
            <route id="XXVl"  edges="e_l l_6 6_b"/>         
            <route id="XXVll" edges="e_l l_6 6_f"/>          
            <route id="XXVlll" edges="e_l l_6 6_m m_6 6_i i_3 3_d"/>      
            <route id="XXlX" edges="e_l l_6 6_m m_6 6_i i_3 3_j j_3 3_c"/>        
            <route id="XXX" edges="e_l l_6 6_m m_6 6_i i_3 3_a"/>	    
                        
        
    <vehicle id="400000" type="Raleigh" route="Vlll" depart="0" departLane="free" departSpeed="random" />
    <vehicle id="400001" type="Raleigh" route="XXl" depart="4" departLane="free" departSpeed="random" />
    <vehicle id="400002" type="Raleigh" route="Vlll" depart="8" departLane="free" departSpeed="random" />
    <vehicle id="400003" type="Raleigh" route="XXVll" depart="8" departLane="free" departSpeed="random" />
    <vehicle id="400004" type="Raleigh" route="Vlll" depart="9" departLane="free" departSpeed="random" />
    <vehicle id="400005" type="Raleigh" route="XXll" depart="9" departLane="free" departSpeed="random" />
    <vehicle id="400006" type="Raleigh" route="Vlll" depart="11" departLane="free" departSpeed="random" />
    <vehicle id="400007" type="Raleigh" route="V" depart="12" departLane="free" departSpeed="random" />
    <vehicle id="400008" type="Raleigh" route="Vl" depart="12" departLane="free" departSpeed="random" />
    <vehicle id="400009" type="Raleigh" route="Vll" depart="14" departLane="free" departSpeed="random" />
    <vehicle id="400010" type="Raleigh" route="Vlll" depart="14" departLane="free" departSpeed="random" />
    <vehicle id="400011" type="Raleigh" route="XXll" depart="14" departLane="free" departSpeed="random" />
    <vehicle id="400012" type="Raleigh" route="Vlll" depart="15" departLane="free" departSpeed="random" />
    <vehicle id="400013" type="Raleigh" route="lV" depart="17" departLane="free" departSpeed="random" />
    <vehicle id="400014" type="Raleigh" route="V" depart="18" departLane="free" departSpeed="random" />
    <vehicle id="400015" type="Raleigh" route="XlV" depart="18" departLane="free" departSpeed="random" />
    <vehicle id="400016" type="Raleigh" route="Vlll" depart="19" departLane="free" departSpeed="random" />
    <vehicle id="400017" type="Raleigh" route="Vlll" depart="20" departLane="free" departSpeed="random" />
    <vehicle id="400018" type="Raleigh" route="Vlll" depart="23" departLane="free" departSpeed="random" />
    <vehicle id="400019" type="Raleigh" route="ll" depart="24" departLane="free" departSpeed="random" />
    <vehicle id="400020" type="Raleigh" route="lV" depart="25" departLane="free" departSpeed="random" />
    <vehicle id="400021" type="Raleigh" route="lV" depart="26" departLane="free" departSpeed="random" />
    <vehicle id="400022" type="Raleigh" route="Vll" depart="26" departLane="free" departSpeed="random" />
    <vehicle id="400023" type="Raleigh" route="XVll" depart="26" departLane="free" departSpeed="random" />
    <vehicle id="400024" type="Raleigh" route="V" depart="28" departLane="free" departSpeed="random" />
    <vehicle id="400025" type="Raleigh" route="V" depart="30" departLane="free" departSpeed="random" />
    <vehicle id="400026" type="Raleigh" route="V" depart="31" departLane="free" departSpeed="random" />
    <vehicle id="400027" type="Raleigh" route="Vlll" depart="31" departLane="free" departSpeed="random" />
    <vehicle id="400028" type="Raleigh" route="XXll" depart="36" departLane="free" departSpeed="random" />
    <vehicle id="400029" type="Raleigh" route="XXVll" depart="39" departLane="free" departSpeed="random" />
    <vehicle id="400030" type="Raleigh" route="Vlll" depart="41" departLane="free" departSpeed="random" />
    <vehicle id="400031" type="Raleigh" route="Vll" depart="43" departLane="free" departSpeed="random" />
    <vehicle id="400032" type="Raleigh" route="X" depart="44" departLane="free" departSpeed="random" />
    <vehicle id="400033" type="Raleigh" route="Vlll" depart="45" departLane="free" departSpeed="random" />
    <vehicle id="400034" type="Raleigh" route="XXll" depart="45" departLane="free" departSpeed="random" />
    <vehicle id="400035" type="Raleigh" route="V" depart="50" departLane="free" departSpeed="random" />
    <vehicle id="400036" type="Raleigh" route="Vll" depart="50" departLane="free" departSpeed="random" />
    <vehicle id="400037" type="Raleigh" route="lV" depart="55" departLane="free" departSpeed="random" />
    <vehicle id="400038" type="Raleigh" route="V" depart="56" departLane="free" departSpeed="random" />
    <vehicle id="400039" type="Raleigh" route="XXVll" depart="56" departLane="free" departSpeed="random" />
    <vehicle id="400040" type="Raleigh" route="Vlll" depart="60" departLane="free" departSpeed="random" />
    <vehicle id="400041" type="Raleigh" route="Vlll" depart="61" departLane="free" departSpeed="random" />
    <vehicle id="400042" type="Raleigh" route="Vlll" depart="66" departLane="free" departSpeed="random" />
    <vehicle id="400043" type="Raleigh" route="X" depart="66" departLane="free" departSpeed="random" />
    <vehicle id="400044" type="Raleigh" route="Vll" depart="68" departLane="free" departSpeed="random" />
    <vehicle id="400045" type="Raleigh" route="Vlll" depart="68" departLane="free" departSpeed="random" />
    <vehicle id="400046" type="Raleigh" route="XXll" depart="70" departLane="free" departSpeed="random" />
    <vehicle id="400047" type="Raleigh" route="Xl" depart="71" departLane="free" departSpeed="random" />
    <vehicle id="400048" type="Raleigh" route="XXVll" depart="71" departLane="free" departSpeed="random" />
    <vehicle id="400049" type="Raleigh" route="V" depart="73" departLane="free" departSpeed="random" />
    <vehicle id="400050" type="Raleigh" route="XXVl" depart="75" departLane="free" departSpeed="random" />
    <vehicle id="400051" type="Raleigh" route="Vlll" depart="81" departLane="free" departSpeed="random" />
    <vehicle id="400052" type="Raleigh" route="XXll" depart="81" departLane="free" departSpeed="random" />
    <vehicle id="400053" type="Raleigh" route="Vll" depart="83" departLane="free" departSpeed="random" />
    <vehicle id="400054" type="Raleigh" route="V" depart="85" departLane="free" departSpeed="random" />
    <vehicle id="400055" type="Raleigh" route="V" depart="86" departLane="free" departSpeed="random" />
    <vehicle id="400056" type="Raleigh" route="XXVll" depart="90" departLane="free" departSpeed="random" />
    <vehicle id="400057" type="Raleigh" route="V" depart="91" departLane="free" departSpeed="random" />
    <vehicle id="400058" type="Raleigh" route="Vl" depart="91" departLane="free" departSpeed="random" />
    <vehicle id="400059" type="Raleigh" route="Vlll" depart="91" departLane="free" departSpeed="random" />
    <vehicle id="400060" type="Raleigh" route="lV" depart="94" departLane="free" departSpeed="random" />
    <vehicle id="400061" type="Raleigh" route="X" depart="94" departLane="free" departSpeed="random" />
    <vehicle id="400062" type="Raleigh" route="XXlll" depart="94" departLane="free" departSpeed="random" />
    <vehicle id="400063" type="Raleigh" route="XVll" depart="96" departLane="free" departSpeed="random" />
    <vehicle id="400064" type="Raleigh" route="XXll" depart="97" departLane="free" departSpeed="random" />
    <vehicle id="400065" type="Raleigh" route="V" depart="98" departLane="free" departSpeed="random" />
    <vehicle id="400066" type="Raleigh" route="Vll" depart="100" departLane="free" departSpeed="random" />
    <vehicle id="400067" type="Raleigh" route="l" depart="101" departLane="free" departSpeed="random" />
    <vehicle id="400068" type="Raleigh" route="V" depart="101" departLane="free" departSpeed="random" />
    <vehicle id="400069" type="Raleigh" route="V" depart="104" departLane="free" departSpeed="random" />
    <vehicle id="400070" type="Raleigh" route="XVll" depart="104" departLane="free" departSpeed="random" />
    <vehicle id="400071" type="Raleigh" route="XX" depart="104" departLane="free" departSpeed="random" />
    <vehicle id="400072" type="Raleigh" route="V" depart="106" departLane="free" departSpeed="random" />
    <vehicle id="400073" type="Raleigh" route="V" depart="107" departLane="free" departSpeed="random" />
    <vehicle id="400074" type="Raleigh" route="XXVll" depart="107" departLane="free" departSpeed="random" />
    <vehicle id="400075" type="Raleigh" route="Vl" depart="108" departLane="free" departSpeed="random" />
    <vehicle id="400076" type="Raleigh" route="XXV" depart="111" departLane="free" departSpeed="random" />
    <vehicle id="400077" type="Raleigh" route="Xl" depart="112" departLane="free" departSpeed="random" />
    <vehicle id="400078" type="Raleigh" route="l" depart="115" departLane="free" departSpeed="random" />
    <vehicle id="400079" type="Raleigh" route="lV" depart="115" departLane="free" departSpeed="random" />
    <vehicle id="400080" type="Raleigh" route="V" depart="120" departLane="free" departSpeed="random" />
    <vehicle id="400081" type="Raleigh" route="Vlll" depart="120" departLane="free" departSpeed="random" />
    <vehicle id="400082" type="Raleigh" route="XVll" depart="120" departLane="free" departSpeed="random" />
    <vehicle id="400083" type="Raleigh" route="V" depart="121" departLane="free" departSpeed="random" />
    <vehicle id="400084" type="Raleigh" route="V" depart="124" departLane="free" departSpeed="random" />
    <vehicle id="400085" type="Raleigh" route="Vl" depart="124" departLane="free" departSpeed="random" />
    <vehicle id="400086" type="Raleigh" route="Vl" depart="127" departLane="free" departSpeed="random" />
    <vehicle id="400087" type="Raleigh" route="XXll" depart="128" departLane="free" departSpeed="random" />
    <vehicle id="400088" type="Raleigh" route="Vlll" depart="130" departLane="free" departSpeed="random" />
    <vehicle id="400089" type="Raleigh" route="Xl" depart="131" departLane="free" departSpeed="random" />
    <vehicle id="400090" type="Raleigh" route="Vlll" depart="132" departLane="free" departSpeed="random" />
    <vehicle id="400091" type="Raleigh" route="l" depart="133" departLane="free" departSpeed="random" />
    <vehicle id="400092" type="Raleigh" route="V" depart="133" departLane="free" departSpeed="random" />
    <vehicle id="400093" type="Raleigh" route="Vlll" depart="136" departLane="free" departSpeed="random" />
    <vehicle id="400094" type="Raleigh" route="XXll" depart="136" departLane="free" departSpeed="random" />
    <vehicle id="400095" type="Raleigh" route="lll" depart="137" departLane="free" departSpeed="random" />
    <vehicle id="400096" type="Raleigh" route="lX" depart="137" departLane="free" departSpeed="random" />
    <vehicle id="400097" type="Raleigh" route="Vlll" depart="138" departLane="free" departSpeed="random" />
    <vehicle id="400098" type="Raleigh" route="Vlll" depart="139" departLane="free" departSpeed="random" />
    <vehicle id="400099" type="Raleigh" route="lX" depart="139" departLane="free" departSpeed="random" />
    <vehicle id="400100" type="Raleigh" route="XVl" depart="141" departLane="free" departSpeed="random" />
    <vehicle id="400101" type="Raleigh" route="XXVl" depart="143" departLane="free" departSpeed="random" />
    <vehicle id="400102" type="Raleigh" route="Vlll" depart="145" departLane="free" departSpeed="random" />
    <vehicle id="400103" type="Raleigh" route="lV" depart="147" departLane="free" departSpeed="random" />
    <vehicle id="400104" type="Raleigh" route="Vll" depart="151" departLane="free" departSpeed="random" />
    <vehicle id="400105" type="Raleigh" route="V" depart="152" departLane="free" departSpeed="random" />
    <vehicle id="400106" type="Raleigh" route="lX" depart="152" departLane="free" departSpeed="random" />
    <vehicle id="400107" type="Raleigh" route="X" depart="152" departLane="free" departSpeed="random" />
    <vehicle id="400108" type="Raleigh" route="XXVll" depart="152" departLane="free" departSpeed="random" />
    <vehicle id="400109" type="Raleigh" route="Xl" depart="154" departLane="free" departSpeed="random" />
    <vehicle id="400110" type="Raleigh" route="V" depart="156" departLane="free" departSpeed="random" />
    <vehicle id="400111" type="Raleigh" route="V" depart="157" departLane="free" departSpeed="random" />
    <vehicle id="400112" type="Raleigh" route="Xl" depart="157" departLane="free" departSpeed="random" />
    <vehicle id="400113" type="Raleigh" route="lV" depart="160" departLane="free" departSpeed="random" />
    <vehicle id="400114" type="Raleigh" route="Vlll" depart="163" departLane="free" departSpeed="random" />
    <vehicle id="400115" type="Raleigh" route="XV" depart="163" departLane="free" departSpeed="random" />
    <vehicle id="400116" type="Raleigh" route="V" depart="164" departLane="free" departSpeed="random" />
    <vehicle id="400117" type="Raleigh" route="Vlll" depart="164" departLane="free" departSpeed="random" />
    <vehicle id="400118" type="Raleigh" route="XXVll" depart="165" departLane="free" departSpeed="random" />
    <vehicle id="400119" type="Raleigh" route="Vlll" depart="166" departLane="free" departSpeed="random" />
    <vehicle id="400120" type="Raleigh" route="V" depart="169" departLane="free" departSpeed="random" />
    <vehicle id="400121" type="Raleigh" route="Xl" depart="170" departLane="free" departSpeed="random" />
    <vehicle id="400122" type="Raleigh" route="V" depart="171" departLane="free" departSpeed="random" />
    <vehicle id="400123" type="Raleigh" route="XXVll" depart="171" departLane="free" departSpeed="random" />
    <vehicle id="400124" type="Raleigh" route="XVll" depart="172" departLane="free" departSpeed="random" />
    <vehicle id="400125" type="Raleigh" route="Xll" depart="173" departLane="free" departSpeed="random" />
    <vehicle id="400126" type="Raleigh" route="V" depart="175" departLane="free" departSpeed="random" />
    <vehicle id="400127" type="Raleigh" route="V" depart="176" departLane="free" departSpeed="random" />
    <vehicle id="400128" type="Raleigh" route="lV" depart="178" departLane="free" departSpeed="random" />
    <vehicle id="400129" type="Raleigh" route="XXVll" depart="178" departLane="free" departSpeed="random" />
    <vehicle id="400130" type="Raleigh" route="XXll" depart="181" departLane="free" departSpeed="random" />
    <vehicle id="400131" type="Raleigh" route="lll" depart="182" departLane="free" departSpeed="random" />
    <vehicle id="400132" type="Raleigh" route="Vlll" depart="182" departLane="free" departSpeed="random" />
    <vehicle id="400133" type="Raleigh" route="Xll" depart="182" departLane="free" departSpeed="random" />
    <vehicle id="400134" type="Raleigh" route="XVll" depart="182" departLane="free" departSpeed="random" />
    <vehicle id="400135" type="Raleigh" route="XVll" depart="183" departLane="free" departSpeed="random" />
    <vehicle id="400136" type="Raleigh" route="V" depart="184" departLane="free" departSpeed="random" />
    <vehicle id="400137" type="Raleigh" route="Vlll" depart="185" departLane="free" departSpeed="random" />
    <vehicle id="400138" type="Raleigh" route="Vlll" depart="186" departLane="free" departSpeed="random" />
    <vehicle id="400139" type="Raleigh" route="V" depart="187" departLane="free" departSpeed="random" />
    <vehicle id="400140" type="Raleigh" route="XXll" depart="188" departLane="free" departSpeed="random" />
    <vehicle id="400141" type="Raleigh" route="V" depart="191" departLane="free" departSpeed="random" />
    <vehicle id="400142" type="Raleigh" route="V" depart="192" departLane="free" departSpeed="random" />
    <vehicle id="400143" type="Raleigh" route="V" depart="193" departLane="free" departSpeed="random" />
    <vehicle id="400144" type="Raleigh" route="ll" depart="195" departLane="free" departSpeed="random" />
    <vehicle id="400145" type="Raleigh" route="V" depart="195" departLane="free" departSpeed="random" />
    <vehicle id="400146" type="Raleigh" route="Xlll" depart="195" departLane="free" departSpeed="random" />
    <vehicle id="400147" type="Raleigh" route="V" depart="200" departLane="free" departSpeed="random" />
    <vehicle id="400148" type="Raleigh" route="Vlll" depart="200" departLane="free" departSpeed="random" />
    <vehicle id="400149" type="Raleigh" route="XXll" depart="201" departLane="free" departSpeed="random" />
    <vehicle id="400150" type="Raleigh" route="X" depart="204" departLane="free" departSpeed="random" />
    <vehicle id="400151" type="Raleigh" route="XVll" depart="204" departLane="free" departSpeed="random" />
    <vehicle id="400152" type="Raleigh" route="Vll" depart="205" departLane="free" departSpeed="random" />
    <vehicle id="400153" type="Raleigh" route="X" depart="205" departLane="free" departSpeed="random" />
    <vehicle id="400154" type="Raleigh" route="XVll" depart="205" departLane="free" departSpeed="random" />
    <vehicle id="400155" type="Raleigh" route="Vlll" depart="206" departLane="free" departSpeed="random" />
    <vehicle id="400156" type="Raleigh" route="XXVll" depart="207" departLane="free" departSpeed="random" />
    <vehicle id="400157" type="Raleigh" route="Vlll" depart="209" departLane="free" departSpeed="random" />
    <vehicle id="400158" type="Raleigh" route="XXVl" depart="209" departLane="free" departSpeed="random" />
    <vehicle id="400159" type="Raleigh" route="V" depart="212" departLane="free" departSpeed="random" />
    <vehicle id="400160" type="Raleigh" route="Vlll" depart="212" departLane="free" departSpeed="random" />
    <vehicle id="400161" type="Raleigh" route="Vlll" depart="214" departLane="free" departSpeed="random" />
    <vehicle id="400162" type="Raleigh" route="V" depart="216" departLane="free" departSpeed="random" />
    <vehicle id="400163" type="Raleigh" route="XVll" depart="217" departLane="free" departSpeed="random" />
    <vehicle id="400164" type="Raleigh" route="V" depart="218" departLane="free" departSpeed="random" />
    <vehicle id="400165" type="Raleigh" route="Vlll" depart="218" departLane="free" departSpeed="random" />
    <vehicle id="400166" type="Raleigh" route="XVll" depart="220" departLane="free" departSpeed="random" />
    <vehicle id="400167" type="Raleigh" route="l" depart="221" departLane="free" departSpeed="random" />
    <vehicle id="400168" type="Raleigh" route="V" depart="221" departLane="free" departSpeed="random" />
    <vehicle id="400169" type="Raleigh" route="Vl" depart="221" departLane="free" departSpeed="random" />
    <vehicle id="400170" type="Raleigh" route="ll" depart="224" departLane="free" departSpeed="random" />
    <vehicle id="400171" type="Raleigh" route="Vlll" depart="224" departLane="free" departSpeed="random" />
    <vehicle id="400172" type="Raleigh" route="Vl" depart="226" departLane="free" departSpeed="random" />
    <vehicle id="400173" type="Raleigh" route="XVll" depart="226" departLane="free" departSpeed="random" />
    <vehicle id="400174" type="Raleigh" route="Vll" depart="228" departLane="free" departSpeed="random" />
    <vehicle id="400175" type="Raleigh" route="Vlll" depart="229" departLane="free" departSpeed="random" />
    <vehicle id="400176" type="Raleigh" route="V" depart="230" departLane="free" departSpeed="random" />
    <vehicle id="400177" type="Raleigh" route="X" depart="230" departLane="free" departSpeed="random" />
    <vehicle id="400178" type="Raleigh" route="XXVll" depart="230" departLane="free" departSpeed="random" />
    <vehicle id="400179" type="Raleigh" route="Vlll" depart="232" departLane="free" departSpeed="random" />
    <vehicle id="400180" type="Raleigh" route="V" depart="235" departLane="free" departSpeed="random" />
    <vehicle id="400181" type="Raleigh" route="Vlll" depart="235" departLane="free" departSpeed="random" />
    <vehicle id="400182" type="Raleigh" route="X" depart="238" departLane="free" departSpeed="random" />
    <vehicle id="400183" type="Raleigh" route="XXll" depart="243" departLane="free" departSpeed="random" />
    <vehicle id="400184" type="Raleigh" route="Vlll" depart="244" departLane="free" departSpeed="random" />
    <vehicle id="400185" type="Raleigh" route="Xlll" depart="245" departLane="free" departSpeed="random" />
    <vehicle id="400186" type="Raleigh" route="XXll" depart="245" departLane="free" departSpeed="random" />
    <vehicle id="400187" type="Raleigh" route="V" depart="246" departLane="free" departSpeed="random" />
    <vehicle id="400188" type="Raleigh" route="Vlll" depart="246" departLane="free" departSpeed="random" />
    <vehicle id="400189" type="Raleigh" route="ll" depart="250" departLane="free" departSpeed="random" />
    <vehicle id="400190" type="Raleigh" route="Vlll" depart="252" departLane="free" departSpeed="random" />
    <vehicle id="400191" type="Raleigh" route="ll" depart="255" departLane="free" departSpeed="random" />
    <vehicle id="400192" type="Raleigh" route="Vll" depart="257" departLane="free" departSpeed="random" />
    <vehicle id="400193" type="Raleigh" route="Vlll" depart="257" departLane="free" departSpeed="random" />
    <vehicle id="400194" type="Raleigh" route="Vlll" depart="258" departLane="free" departSpeed="random" />
    <vehicle id="400195" type="Raleigh" route="XVll" depart="259" departLane="free" departSpeed="random" />
    <vehicle id="400196" type="Raleigh" route="V" depart="260" departLane="free" departSpeed="random" />
    <vehicle id="400197" type="Raleigh" route="Vl" depart="261" departLane="free" departSpeed="random" />
    <vehicle id="400198" type="Raleigh" route="Xl" depart="261" departLane="free" departSpeed="random" />
    <vehicle id="400199" type="Raleigh" route="Xl" depart="263" departLane="free" departSpeed="random" />
    <vehicle id="400200" type="Raleigh" route="XVl" depart="263" departLane="free" departSpeed="random" />
    <vehicle id="400201" type="Raleigh" route="Xl" depart="264" departLane="free" departSpeed="random" />
    <vehicle id="400202" type="Raleigh" route="lll" depart="266" departLane="free" departSpeed="random" />
    <vehicle id="400203" type="Raleigh" route="XXVll" depart="274" departLane="free" departSpeed="random" />
    <vehicle id="400204" type="Raleigh" route="Vlll" depart="275" departLane="free" departSpeed="random" />
    <vehicle id="400205" type="Raleigh" route="Xl" depart="275" departLane="free" departSpeed="random" />
    <vehicle id="400206" type="Raleigh" route="X" depart="276" departLane="free" departSpeed="random" />
    <vehicle id="400207" type="Raleigh" route="Vlll" depart="280" departLane="free" departSpeed="random" />
    <vehicle id="400208" type="Raleigh" route="XXVll" depart="280" departLane="free" departSpeed="random" />
    <vehicle id="400209" type="Raleigh" route="ll" depart="281" departLane="free" departSpeed="random" />
    <vehicle id="400210" type="Raleigh" route="XVll" depart="281" departLane="free" departSpeed="random" />
    <vehicle id="400211" type="Raleigh" route="XVll" depart="282" departLane="free" departSpeed="random" />
    <vehicle id="400212" type="Raleigh" route="V" depart="283" departLane="free" departSpeed="random" />
    <vehicle id="400213" type="Raleigh" route="V" depart="285" departLane="free" departSpeed="random" />
    <vehicle id="400214" type="Raleigh" route="Xl" depart="285" departLane="free" departSpeed="random" />
    <vehicle id="400215" type="Raleigh" route="X" depart="286" departLane="free" departSpeed="random" />
    <vehicle id="400216" type="Raleigh" route="Vll" depart="287" departLane="free" departSpeed="random" />
    <vehicle id="400217" type="Raleigh" route="Xl" depart="287" departLane="free" departSpeed="random" />
    <vehicle id="400218" type="Raleigh" route="XXll" depart="287" departLane="free" departSpeed="random" />
    <vehicle id="400219" type="Raleigh" route="Vlll" depart="288" departLane="free" departSpeed="random" />
    <vehicle id="400220" type="Raleigh" route="XXll" depart="288" departLane="free" departSpeed="random" />
    <vehicle id="400221" type="Raleigh" route="l" depart="289" departLane="free" departSpeed="random" />
    <vehicle id="400222" type="Raleigh" route="Vlll" depart="292" departLane="free" departSpeed="random" />
    <vehicle id="400223" type="Raleigh" route="V" depart="294" departLane="free" departSpeed="random" />
    <vehicle id="400224" type="Raleigh" route="V" depart="295" departLane="free" departSpeed="random" />
    <vehicle id="400225" type="Raleigh" route="Vll" depart="295" departLane="free" departSpeed="random" />
    <vehicle id="400226" type="Raleigh" route="XVll" depart="295" departLane="free" departSpeed="random" />
    <vehicle id="400227" type="Raleigh" route="Vlll" depart="296" departLane="free" departSpeed="random" />
    <vehicle id="400228" type="Raleigh" route="XXVll" depart="296" departLane="free" departSpeed="random" />
    <vehicle id="400229" type="Raleigh" route="lll" depart="298" departLane="free" departSpeed="random" />
    <vehicle id="400230" type="Raleigh" route="Vl" depart="298" departLane="free" departSpeed="random" />
    <vehicle id="400231" type="Raleigh" route="V" depart="299" departLane="free" departSpeed="random" />
    <vehicle id="400232" type="Raleigh" route="Vlll" depart="299" departLane="free" departSpeed="random" />
    <vehicle id="400233" type="Raleigh" route="Xl" depart="300" departLane="free" departSpeed="random" />
    <vehicle id="400234" type="Raleigh" route="XVll" depart="300" departLane="free" departSpeed="random" />
    <vehicle id="400235" type="Raleigh" route="lll" depart="301" departLane="free" departSpeed="random" />
    <vehicle id="400236" type="Raleigh" route="Xl" depart="301" departLane="free" departSpeed="random" />
    <vehicle id="400237" type="Raleigh" route="XXll" depart="301" departLane="free" departSpeed="random" />
    <vehicle id="400238" type="Raleigh" route="V" depart="302" departLane="free" departSpeed="random" />
    <vehicle id="400239" type="Raleigh" route="ll" depart="303" departLane="free" departSpeed="random" />
    <vehicle id="400240" type="Raleigh" route="V" depart="304" departLane="free" departSpeed="random" />
    <vehicle id="400241" type="Raleigh" route="Vlll" depart="304" departLane="free" departSpeed="random" />
    <vehicle id="400242" type="Raleigh" route="Vl" depart="307" departLane="free" departSpeed="random" />
    <vehicle id="400243" type="Raleigh" route="Vlll" depart="307" departLane="free" departSpeed="random" />
    <vehicle id="400244" type="Raleigh" route="V" depart="311" departLane="free" departSpeed="random" />
    <vehicle id="400245" type="Raleigh" route="X" depart="311" departLane="free" departSpeed="random" />
    <vehicle id="400246" type="Raleigh" route="Vlll" depart="314" departLane="free" departSpeed="random" />
    <vehicle id="400247" type="Raleigh" route="XVll" depart="314" departLane="free" departSpeed="random" />
    <vehicle id="400248" type="Raleigh" route="V" depart="315" departLane="free" departSpeed="random" />
    <vehicle id="400249" type="Raleigh" route="XXVll" depart="315" departLane="free" departSpeed="random" />
    <vehicle id="400250" type="Raleigh" route="Vlll" depart="316" departLane="free" departSpeed="random" />
    <vehicle id="400251" type="Raleigh" route="ll" depart="318" departLane="free" departSpeed="random" />
    <vehicle id="400252" type="Raleigh" route="V" depart="319" departLane="free" departSpeed="random" />
    <vehicle id="400253" type="Raleigh" route="XVll" depart="320" departLane="free" departSpeed="random" />
    <vehicle id="400254" type="Raleigh" route="V" depart="322" departLane="free" departSpeed="random" />
    <vehicle id="400255" type="Raleigh" route="XVll" depart="323" departLane="free" departSpeed="random" />
    <vehicle id="400256" type="Raleigh" route="Vl" depart="325" departLane="free" departSpeed="random" />
    <vehicle id="400257" type="Raleigh" route="V" depart="326" departLane="free" departSpeed="random" />
    <vehicle id="400258" type="Raleigh" route="X" depart="326" departLane="free" departSpeed="random" />
    <vehicle id="400259" type="Raleigh" route="XXVll" depart="326" departLane="free" departSpeed="random" />