<routes>


            <vType id="Berliner" accel="0.5" decel="1.0" sigma="0.5" length="0.5" maxSpeed="1.5" minGap="1.0" color="255,165,0" guiShape="pedestrian"  width ="0.5" vClass="pedestrian"/>  

            
            <route id="a" edges="a_g g_3 3_k"/>

            <route id="c" edges="6_i i_3 3_a"/>
            
            <route id="e" edges="c_h h_3 3_d"/>

            <route id="g" edges="d_j j_3 3_c"/>
            

            <route id="i" edges="3_k k_6 6_b"/>
             
            <route id="k" edges="b_m m_6 6_i"/>
                        
            <route id="m" edges="e_l l_6 6_f"/>
           
            <route id="o" edges="f_n n_6 6_e"/>
                        
        
    <vehicle id="800000" type="Berliner" route="i" depart="0" departLane="free" departSpeed="random" />
    <vehicle id="800001" type="Berliner" route="o" depart="1" departLane="free" departSpeed="random" />
    <vehicle id="800002" type="Berliner" route="k" depart="2" departLane="free" departSpeed="random" />
    <vehicle id="800003" type="Berliner" route="c" depart="3" departLane="free" departSpeed="random" />
    <vehicle id="800004" type="Berliner" route="i" depart="3" departLane="free" departSpeed="random" />
    <vehicle id="800005" type="Berliner" route="g" depart="4" departLane="free" departSpeed="random" />
    <vehicle id="800006" type="Berliner" route="a" depart="5" departLane="free" departSpeed="random" />
    <vehicle id="800007" type="Berliner" route="g" depart="5" departLane="free" departSpeed="random" />
    <vehicle id="800008" type="Berliner" route="k" depart="7" departLane="free" departSpeed="random" />
    <vehicle id="800009" type="Berliner" route="i" depart="8" departLane="free" departSpeed="random" />
    <vehicle id="800010" type="Berliner" route="i" depart="13" departLane="free" departSpeed="random" />
    <vehicle id="800011" type="Berliner" route="i" depart="15" departLane="free" departSpeed="random" />
    <vehicle id="800012" type="Berliner" route="a" depart="16" departLane="free" departSpeed="random" />
    <vehicle id="800013" type="Berliner" route="e" depart="17" departLane="free" departSpeed="random" />
    <vehicle id="800014" type="Berliner" route="k" depart="18" departLane="free" departSpeed="random" />
    <vehicle id="800015" type="Berliner" route="c" depart="23" departLane="free" departSpeed="random" />
    <vehicle id="800016" type="Berliner" route="k" depart="25" departLane="free" departSpeed="random" />
    <vehicle id="800017" type="Berliner" route="c" depart="27" departLane="free" departSpeed="random" />
    <vehicle id="800018" type="Berliner" route="a" depart="29" departLane="free" departSpeed="random" />
    <vehicle id="800019" type="Berliner" route="m" depart="30" departLane="free" departSpeed="random" />
    <vehicle id="800020" type="Berliner" route="a" depart="34" departLane="free" departSpeed="random" />
    <vehicle id="800021" type="Berliner" route="i" depart="39" departLane="free" departSpeed="random" />
    <vehicle id="800022" type="Berliner" route="e" depart="40" departLane="free" departSpeed="random" />
    <vehicle id="800023" type="Berliner" route="c" depart="42" departLane="free" departSpeed="random" />
    <vehicle id="800024" type="Berliner" route="k" depart="42" departLane="free" departSpeed="random" />
    <vehicle id="800025" type="Berliner" route="c" depart="43" departLane="free" departSpeed="random" />
    <vehicle id="800026" type="Berliner" route="e" depart="44" departLane="free" departSpeed="random" />
    <vehicle id="800027" type="Berliner" route="o" depart="46" departLane="free" departSpeed="random" />
    <vehicle id="800028" type="Berliner" route="c" depart="49" departLane="free" departSpeed="random" />
    <vehicle id="800029" type="Berliner" route="o" depart="49" departLane="free" departSpeed="random" />
    <vehicle id="800030" type="Berliner" route="a" depart="50" departLane="free" departSpeed="random" />
    <vehicle id="800031" type="Berliner" route="a" depart="51" departLane="free" departSpeed="random" />
    <vehicle id="800032" type="Berliner" route="i" depart="58" departLane="free" departSpeed="random" />
    <vehicle id="800033" type="Berliner" route="k" depart="58" departLane="free" departSpeed="random" />
    <vehicle id="800034" type="Berliner" route="i" depart="60" departLane="free" departSpeed="random" />
    <vehicle id="800035" type="Berliner" route="i" depart="62" departLane="free" departSpeed="random" />
    <vehicle id="800036" type="Berliner" route="c" depart="63" departLane="free" departSpeed="random" />
    <vehicle id="800037" type="Berliner" route="k" depart="63" departLane="free" departSpeed="random" />
    <vehicle id="800038" type="Berliner" route="a" depart="64" departLane="free" departSpeed="random" />
    <vehicle id="800039" type="Berliner" route="i" depart="68" departLane="free" departSpeed="random" />
    <vehicle id="800040" type="Berliner" route="c" depart="69" departLane="free" departSpeed="random" />
    <vehicle id="800041" type="Berliner" route="k" depart="69" departLane="free" departSpeed="random" />
    <vehicle id="800042" type="Berliner" route="c" depart="70" departLane="free" departSpeed="random" />
    <vehicle id="800043" type="Berliner" route="i" depart="72" departLane="free" departSpeed="random" />
    <vehicle id="800044" type="Berliner" route="k" depart="72" departLane="free" departSpeed="random" />
    <vehicle id="800045" type="Berliner" route="m" depart="72" departLane="free" departSpeed="random" />
    <vehicle id="800046" type="Berliner" route="i" depart="75" departLane="free" departSpeed="random" />
    <vehicle id="800047" type="Berliner" route="a" depart="76" departLane="free" departSpeed="random" />
    <vehicle id="800048" type="Berliner" route="c" depart="79" departLane="free" departSpeed="random" />
    <vehicle id="800049" type="Berliner" route="a" depart="84" departLane="free" departSpeed="random" />
    <vehicle id="800050" type="Berliner" route="a" depart="86" departLane="free" departSpeed="random" />
    <vehicle id="800051" type="Berliner" route="g" depart="87" departLane="free" departSpeed="random" />
    <vehicle id="800052" type="Berliner" route="k" depart="89" departLane="free" departSpeed="random" />
    <vehicle id="800053" type="Berliner" route="a" depart="91" departLane="free" departSpeed="random" />
    <vehicle id="800054" type="Berliner" route="i" depart="91" departLane="free" departSpeed="random" />
    <vehicle id="800055" type="Berliner" route="k" depart="91" departLane="free" departSpeed="random" />
    <vehicle id="800056" type="Berliner" route="k" depart="94" departLane="free" departSpeed="random" />
    <vehicle id="800057" type="Berliner" route="a" depart="95" departLane="free" departSpeed="random" />
    <vehicle id="800058" type="Berliner" route="a" depart="96" departLane="free" departSpeed="random" />
    <vehicle id="800059" type="Berliner" route="m" depart="100" departLane="free" departSpeed="random" />
    <vehicle id="800060" type="Berliner" route="a" depart="105" departLane="free" departSpeed="random" />
    <vehicle id="800061" type="Berliner" route="k" depart="110" departLane="free" departSpeed="random" />
    <vehicle id="800062" type="Berliner" route="k" depart="111" departLane="free" departSpeed="random" />
    <vehicle id="800063" type="Berliner" route="m" depart="115" departLane="free" departSpeed="random" />
    <vehicle id="800064" type="Berliner" route="c" depart="117" departLane="free" departSpeed="random" />
    <vehicle id="800065" type="Berliner" route="e" depart="119" departLane="free" departSpeed="random" />
    <vehicle id="800066" type="Berliner" route="a" depart="123" departLane="free" departSpeed="random" />
    <vehicle id="800067" type="Berliner" route="a" depart="124" departLane="free" departSpeed="random" />
    <vehicle id="800068" type="Berliner" route="c" depart="125" departLane="free" departSpeed="random" />
    <vehicle id="800069" type="Berliner" route="e" depart="125" departLane="free" departSpeed="random" />
    <vehicle id="800070" type="Berliner" route="a" depart="129" departLane="free" departSpeed="random" />
    <vehicle id="800071" type="Berliner" route="i" depart="129" departLane="free" departSpeed="random" />
    <vehicle id="800072" type="Berliner" route="c" depart="131" departLane="free" departSpeed="random" />
    <vehicle id="800073" type="Berliner" route="k" depart="132" departLane="free" departSpeed="random" />
    <vehicle id="800074" type="Berliner" route="i" depart="133" departLane="free" departSpeed="random" />
    <vehicle id="800075" type="Berliner" route="k" depart="135" departLane="free" departSpeed="random" />
    <vehicle id="800076" type="Berliner" route="c" depart="138" departLane="free" departSpeed="random" />
    <vehicle id="800077" type="Berliner" route="i" depart="138" departLane="free" departSpeed="random" />
    <vehicle id="800078" type="Berliner" route="i" depart="139" departLane="free" departSpeed="random" />
    <vehicle id="800079" type="Berliner" route="o" depart="139" departLane="free" departSpeed="random" />
    <vehicle id="800080" type="Berliner" route="a" depart="141" departLane="free" departSpeed="random" />
    <vehicle id="800081" type="Berliner" route="c" depart="141" departLane="free" departSpeed="random" />
    <vehicle id="800082" type="Berliner" route="c" depart="143" departLane="free" departSpeed="random" />
    <vehicle id="800083" type="Berliner" route="i" depart="143" departLane="free" departSpeed="random" />
    <vehicle id="800084" type="Berliner" route="c" depart="144" departLane="free" departSpeed="random" />
    <vehicle id="800085" type="Berliner" route="e" depart="146" departLane="free" departSpeed="random" />
    <vehicle id="800086" type="Berliner" route="a" depart="147" departLane="free" departSpeed="random" />
    <vehicle id="800087" type="Berliner" route="e" depart="147" departLane="free" departSpeed="random" />
    <vehicle id="800088" type="Berliner" route="a" depart="148" departLane="free" departSpeed="random" />
    <vehicle id="800089" type="Berliner" route="i" depart="149" departLane="free" departSpeed="random" />
    <vehicle id="800090" type="Berliner" route="k" depart="153" departLane="free" departSpeed="random" />
    <vehicle id="800091" type="Berliner" route="a" depart="157" departLane="free" departSpeed="random" />
    <vehicle id="800092" type="Berliner" route="a" depart="158" departLane="free" departSpeed="random" />
    <vehicle id="800093" type="Berliner" route="i" depart="159" departLane="free" departSpeed="random" />
    <vehicle id="800094" type="Berliner" route="k" depart="160" departLane="free" departSpeed="random" />
    <vehicle id="800095" type="Berliner" route="i" depart="161" departLane="free" departSpeed="random" />
    <vehicle id="800096" type="Berliner" route="o" depart="161" departLane="free" departSpeed="random" />
    <vehicle id="800097" type="Berliner" route="e" depart="162" departLane="free" departSpeed="random" />
    <vehicle id="800098" type="Berliner" route="g" depart="162" departLane="free" departSpeed="random" />
    <vehicle id="800099" type="Berliner" route="i" depart="162" departLane="free" departSpeed="random" />
    <vehicle id="800100" type="Berliner" route="c" depart="163" departLane="free" departSpeed="random" />
    <vehicle id="800101" type="Berliner" route="k" depart="165" departLane="free" departSpeed="random" />
    <vehicle id="800102" type="Berliner" route="a" depart="166" departLane="free" departSpeed="random" />
    <vehicle id="800103" type="Berliner" route="g" depart="169" departLane="free" departSpeed="random" />
    <vehicle id="800104" type="Berliner" route="k" depart="169" departLane="free" departSpeed="random" />
    <vehicle id="800105" type="Berliner" route="c" depart="170" departLane="free" departSpeed="random" />
    <vehicle id="800106" type="Berliner" route="a" depart="171" departLane="free" departSpeed="random" />
    <vehicle id="800107" type="Berliner" route="c" depart="172" departLane="free" departSpeed="random" />
    <vehicle id="800108" type="Berliner" route="e" depart="173" departLane="free" departSpeed="random" />
    <vehicle id="800109" type="Berliner" route="k" depart="175" departLane="free" departSpeed="random" />
    <vehicle id="800110" type="Berliner" route="o" depart="175" departLane="free" departSpeed="random" />
    <vehicle id="800111" type="Berliner" route="a" depart="176" departLane="free" departSpeed="random" />
    <vehicle id="800112" type="Berliner" route="c" depart="176" departLane="free" departSpeed="random" />
    <vehicle id="800113" type="Berliner" route="k" depart="177" departLane="free" departSpeed="random" />
    <vehicle id="800114" type="Berliner" route="o" depart="177" departLane="free" departSpeed="random" />
    <vehicle id="800115" type="Berliner" route="o" depart="179" departLane="free" departSpeed="random" />
    <vehicle id="800116" type="Berliner" route="m" depart="183" departLane="free" departSpeed="random" />
    <vehicle id="800117" type="Berliner" route="a" depart="188" departLane="free" departSpeed="random" />
    <vehicle id="800118" type="Berliner" route="i" depart="189" departLane="free" departSpeed="random" />
    <vehicle id="800119" type="Berliner" route="k" depart="189" departLane="free" departSpeed="random" />
    <vehicle id="800120" type="Berliner" route="c" depart="190" departLane="free" departSpeed="random" />
    <vehicle id="800121" type="Berliner" route="a" depart="192" departLane="free" departSpeed="random" />
    <vehicle id="800122" type="Berliner" route="i" depart="192" departLane="free" departSpeed="random" />
    <vehicle id="800123" type="Berliner" route="m" depart="192" departLane="free" departSpeed="random" />
    <vehicle id="800124" type="Berliner" route="a" depart="193" departLane="free" departSpeed="random" />
    <vehicle id="800125" type="Berliner" route="c" depart="193" departLane="free" departSpeed="random" />
    <vehicle id="800126" type="Berliner" route="c" depart="194" departLane="free" departSpeed="random" />
    <vehicle id="800127" type="Berliner" route="a" depart="195" departLane="free" departSpeed="random" />
    <vehicle id="800128" type="Berliner" route="c" depart="195" departLane="free" departSpeed="random" />
    <vehicle id="800129" type="Berliner" route="m" depart="197" departLane="free" departSpeed="random" />
    <vehicle id="800130" type="Berliner" route="i" depart="199" departLane="free" departSpeed="random" />
    <vehicle id="800131" type="Berliner" route="a" depart="200" departLane="free" departSpeed="random" />
    <vehicle id="800132" type="Berliner" route="i" depart="202" departLane="free" departSpeed="random" />
    <vehicle id="800133" type="Berliner" route="a" depart="205" departLane="free" departSpeed="random" />
    <vehicle id="800134" type="Berliner" route="k" depart="206" departLane="free" departSpeed="random" />
    <vehicle id="800135" type="Berliner" route="a" depart="207" departLane="free" departSpeed="random" />
    <vehicle id="800136" type="Berliner" route="k" depart="209" departLane="free" departSpeed="random" />
    <vehicle id="800137" type="Berliner" route="k" depart="210" departLane="free" departSpeed="random" />
    <vehicle id="800138" type="Berliner" route="k" depart="213" departLane="free" departSpeed="random" />
    <vehicle id="800139" type="Berliner" route="k" depart="214" departLane="free" departSpeed="random" />
    <vehicle id="800140" type="Berliner" route="c" depart="215" departLane="free" departSpeed="random" />
    <vehicle id="800141" type="Berliner" route="k" depart="218" departLane="free" departSpeed="random" />
    <vehicle id="800142" type="Berliner" route="o" depart="218" departLane="free" departSpeed="random" />
    <vehicle id="800143" type="Berliner" route="k" depart="219" departLane="free" departSpeed="random" />
    <vehicle id="800144" type="Berliner" route="c" depart="221" departLane="free" departSpeed="random" />
    <vehicle id="800145" type="Berliner" route="c" depart="225" departLane="free" departSpeed="random" />
    <vehicle id="800146" type="Berliner" route="m" depart="227" departLane="free" departSpeed="random" />
    <vehicle id="800147" type="Berliner" route="k" depart="229" departLane="free" departSpeed="random" />
    <vehicle id="800148" type="Berliner" route="c" depart="231" departLane="free" departSpeed="random" />
    <vehicle id="800149" type="Berliner" route="a" depart="240" departLane="free" departSpeed="random" />
    <vehicle id="800150" type="Berliner" route="i" depart="241" departLane="free" departSpeed="random" />
    <vehicle id="800151" type="Berliner" route="g" depart="242" departLane="free" departSpeed="random" />
    <vehicle id="800152" type="Berliner" route="a" depart="245" departLane="free" departSpeed="random" />
    <vehicle id="800153" type="Berliner" route="a" depart="246" departLane="free" departSpeed="random" />
    <vehicle id="800154" type="Berliner" route="i" depart="246" departLane="free" departSpeed="random" />
    <vehicle id="800155" type="Berliner" route="k" depart="249" departLane="free" departSpeed="random" />
    <vehicle id="800156" type="Berliner" route="o" depart="249" departLane="free" departSpeed="random" />
    <vehicle id="800157" type="Berliner" route="k" depart="255" departLane="free" departSpeed="random" />
    <vehicle id="800158" type="Berliner" route="o" depart="257" departLane="free" departSpeed="random" />
    <vehicle id="800159" type="Berliner" route="a" depart="258" departLane="free" departSpeed="random" />
    <vehicle id="800160" type="Berliner" route="k" depart="258" departLane="free" departSpeed="random" />
    <vehicle id="800161" type="Berliner" route="i" depart="262" departLane="free" departSpeed="random" />
    <vehicle id="800162" type="Berliner" route="c" depart="263" departLane="free" departSpeed="random" />
    <vehicle id="800163" type="Berliner" route="e" depart="263" departLane="free" departSpeed="random" />
    <vehicle id="800164" type="Berliner" route="a" depart="266" departLane="free" departSpeed="random" />
    <vehicle id="800165" type="Berliner" route="i" depart="267" departLane="free" departSpeed="random" />
    <vehicle id="800166" type="Berliner" route="k" depart="268" departLane="free" departSpeed="random" />
    <vehicle id="800167" type="Berliner" route="i" depart="269" departLane="free" departSpeed="random" />
    <vehicle id="800168" type="Berliner" route="k" depart="269" departLane="free" departSpeed="random" />
    <vehicle id="800169" type="Berliner" route="c" depart="270" departLane="free" departSpeed="random" />
    <vehicle id="800170" type="Berliner" route="c" depart="273" departLane="free" departSpeed="random" />
    <vehicle id="800171" type="Berliner" route="a" depart="276" departLane="free" departSpeed="random" />
    <vehicle id="800172" type="Berliner" route="c" depart="278" departLane="free" departSpeed="random" />
    <vehicle id="800173" type="Berliner" route="a" depart="279" departLane="free" departSpeed="random" />
    <vehicle id="800174" type="Berliner" route="i" depart="282" departLane="free" departSpeed="random" />
    <vehicle id="800175" type="Berliner" route="k" depart="288" departLane="free" departSpeed="random" />
    <vehicle id="800176" type="Berliner" route="c" depart="289" departLane="free" departSpeed="random" />
    <vehicle id="800177" type="Berliner" route="a" depart="291" departLane="free" departSpeed="random" />
    <vehicle id="800178" type="Berliner" route="c" depart="291" departLane="free" departSpeed="random" />
    <vehicle id="800179" type="Berliner" route="a" depart="292" departLane="free" departSpeed="random" />
    <vehicle id="800180" type="Berliner" route="c" depart="293" departLane="free" departSpeed="random" />
    <vehicle id="800181" type="Berliner" route="c" depart="294" departLane="free" departSpeed="random" />
    <vehicle id="800182" type="Berliner" route="k" depart="294" departLane="free" departSpeed="random" />
    <vehicle id="800183" type="Berliner" route="i" depart="295" departLane="free" departSpeed="random" />
    <vehicle id="800184" type="Berliner" route="o" depart="297" departLane="free" departSpeed="random" />
    <vehicle id="800185" type="Berliner" route="c" depart="300" departLane="free" departSpeed="random" />
    <vehicle id="800186" type="Berliner" route="k" depart="300" departLane="free" departSpeed="random" />
    <vehicle id="800187" type="Berliner" route="k" depart="303" departLane="free" departSpeed="random" />
    <vehicle id="800188" type="Berliner" route="g" depart="305" departLane="free" departSpeed="random" />
    <vehicle id="800189" type="Berliner" route="i" depart="307" departLane="free" departSpeed="random" />
    <vehicle id="800190" type="Berliner" route="a" depart="308" departLane="free" departSpeed="random" />
    <vehicle id="800191" type="Berliner" route="i" depart="311" departLane="free" departSpeed="random" />
    <vehicle id="800192" type="Berliner" route="k" depart="313" departLane="free" departSpeed="random" />
    <vehicle id="800193" type="Berliner" route="a" depart="314" departLane="free" departSpeed="random" />
    <vehicle id="800194" type="Berliner" route="a" depart="315" departLane="free" departSpeed="random" />
    <vehicle id="800195" type="Berliner" route="m" depart="317" departLane="free" departSpeed="random" />
    <vehicle id="800196" type="Berliner" route="a" depart="318" departLane="free" departSpeed="random" />
    <vehicle id="800197" type="Berliner" route="k" depart="318" departLane="free" departSpeed="random" />
    <vehicle id="800198" type="Berliner" route="c" depart="319" departLane="free" departSpeed="random" />
    <vehicle id="800199" type="Berliner" route="k" depart="319" departLane="free" departSpeed="random" />
    <vehicle id="800200" type="Berliner" route="m" depart="320" departLane="free" departSpeed="random" />
    <vehicle id="800201" type="Berliner" route="k" depart="321" departLane="free" departSpeed="random" />
    <vehicle id="800202" type="Berliner" route="i" depart="325" departLane="free" departSpeed="random" />
    <vehicle id="800203" type="Berliner" route="k" depart="325" departLane="free" departSpeed="random" />
    <vehicle id="800204" type="Berliner" route="c" depart="326" departLane="free" departSpeed="random" />
    <vehicle id="800205" type="Berliner" route="m" depart="326" departLane="free" departSpeed="random" />
    <vehicle id="800206" type="Berliner" route="k" depart="328" departLane="free" departSpeed="random" />
    <vehicle id="800207" type="Berliner" route="a" depart="330" departLane="free" departSpeed="random" />
    <vehicle id="800208" type="Berliner" route="a" depart="333" departLane="free" departSpeed="random" />
    <vehicle id="800209" type="Berliner" route="a" depart="334" departLane="free" departSpeed="random" />
    <vehicle id="800210" type="Berliner" route="c" depart="336" departLane="free" departSpeed="random" />
    <vehicle id="800211" type="Berliner" route="i" depart="336" departLane="free" departSpeed="random" />
    <vehicle id="800212" type="Berliner" route="c" depart="337" departLane="free" departSpeed="random" />
    <vehicle id="800213" type="Berliner" route="i" depart="337" departLane="free" departSpeed="random" />
    <vehicle id="800214" type="Berliner" route="k" depart="337" departLane="free" departSpeed="random" />
    <vehicle id="800215" type="Berliner" route="c" depart="338" departLane="free" departSpeed="random" />
    <vehicle id="800216" type="Berliner" route="c" depart="339" departLane="free" departSpeed="random" />
    <vehicle id="800217" type="Berliner" route="i" depart="339" departLane="free" departSpeed="random" />
    <vehicle id="800218" type="Berliner" route="i" depart="341" departLane="free" departSpeed="random" />
    <vehicle id="800219" type="Berliner" route="g" depart="346" departLane="free" departSpeed="random" />
    <vehicle id="800220" type="Berliner" route="a" depart="348" departLane="free" departSpeed="random" />
    <vehicle id="800221" type="Berliner" route="m" depart="349" departLane="free" departSpeed="random" />
    <vehicle id="800222" type="Berliner" route="k" depart="350" departLane="free" departSpeed="random" />
    <vehicle id="800223" type="Berliner" route="g" depart="352" departLane="free" departSpeed="random" />
    <vehicle id="800224" type="Berliner" route="c" depart="355" departLane="free" departSpeed="random" />
    <vehicle id="800225" type="Berliner" route="i" depart="355" departLane="free" departSpeed="random" />
    <vehicle id="800226" type="Berliner" route="i" depart="356" departLane="free" departSpeed="random" />
    <vehicle id="800227" type="Berliner" route="i" depart="361" departLane="free" departSpeed="random" />
    <vehicle id="800228" type="Berliner" route="k" depart="362" departLane="free" departSpeed="random" />
    <vehicle id="800229" type="Berliner" route="c" depart="363" departLane="free" departSpeed="random" />
    <vehicle id="800230" type="Berliner" route="m" depart="363" departLane="free" departSpeed="random" />
    <vehicle id="800231" type="Berliner" route="e" depart="364" departLane="free" departSpeed="random" />
    <vehicle id="800232" type="Berliner" route="m" depart="367" departLane="free" departSpeed="random" />
    <vehicle id="800233" type="Berliner" route="g" depart="368" departLane="free" departSpeed="random" />
    <vehicle id="800234" type="Berliner" route="a" depart="369" departLane="free" departSpeed="random" />
    <vehicle id="800235" type="Berliner" route="i" depart="373" departLane="free" departSpeed="random" />
    <vehicle id="800236" type="Berliner" route="c" depart="374" departLane="free" departSpeed="random" />
    <vehicle id="800237" type="Berliner" route="a" depart="376" departLane="free" departSpeed="random" />
    <vehicle id="800238" type="Berliner" route="c" depart="376" departLane="free" departSpeed="random" />
    <vehicle id="800239" type="Berliner" route="e" depart="376" departLane="free" departSpeed="random" />
    <vehicle id="800240" type="Berliner" route="k" depart="376" departLane="free" departSpeed="random" />
    <vehicle id="800241" type="Berliner" route="a" depart="377" departLane="free" departSpeed="random" />
    <vehicle id="800242" type="Berliner" route="a" depart="379" departLane="free" departSpeed="random" />
    <vehicle id="800243" type="Berliner" route="a" depart="380" departLane="free" departSpeed="random" />
    <vehicle id="800244" type="Berliner" route="a" depart="383" departLane="free" departSpeed="random" />
    <vehicle id="800245" type="Berliner" route="k" depart="383" departLane="free" departSpeed="random" />
    <vehicle id="800246" type="Berliner" route="i" depart="384" departLane="free" departSpeed="random" />
    <vehicle id="800247" type="Berliner" route="i" depart="385" departLane="free" departSpeed="random" />
    <vehicle id="800248" type="Berliner" route="a" depart="388" departLane="free" departSpeed="random" />
    <vehicle id="800249" type="Berliner" route="c" depart="390" departLane="free" departSpeed="random" />
    <vehicle id="800250" type="Berliner" route="k" depart="390" departLane="free" departSpeed="random" />
    <vehicle id="800251" type="Berliner" route="i" depart="395" departLane="free" departSpeed="random" />
    <vehicle id="800252" type="Berliner" route="k" depart="395" departLane="free" departSpeed="random" />
    <vehicle id="800253" type="Berliner" route="a" depart="396" departLane="free" departSpeed="random" />
    <vehicle id="800254" type="Berliner" route="g" depart="396" departLane="free" departSpeed="random" />
    <vehicle id="800255" type="Berliner" route="k" depart="398" departLane="free" departSpeed="random" />
    <vehicle id="800256" type="Berliner" route="e" depart="399" departLane="free" departSpeed="random" />
    <vehicle id="800257" type="Berliner" route="k" depart="399" departLane="free" departSpeed="random" />
    <vehicle id="800258" type="Berliner" route="o" depart="399" departLane="free" departSpeed="random" />
    <vehicle id="800259" type="Berliner" route="g" depart="400" departLane="free" departSpeed="random" />
    <vehicle id="800260" type="Berliner" route="m" depart="403" departLane="free" departSpeed="random" />
    <vehicle id="800261" type="Berliner" route="i" depart="411" departLane="free" departSpeed="random" />
    <vehicle id="800262" type="Berliner" route="g" depart="413" departLane="free" departSpeed="random" />
    <vehicle id="800263" type="Berliner" route="i" depart="417" departLane="free" departSpeed="random" />
    <vehicle id="800264" type="Berliner" route="i" depart="419" departLane="free" departSpeed="random" />
    <vehicle id="800265" type="Berliner" route="i" depart="422" departLane="free" departSpeed="random" />
    <vehicle id="800266" type="Berliner" route="g" depart="423" departLane="free" departSpeed="random" />
    <vehicle id="800267" type="Berliner" route="k" depart="423" departLane="free" departSpeed="random" />
    <vehicle id="800268" type="Berliner" route="a" depart="424" departLane="free" departSpeed="random" />
    <vehicle id="800269" type="Berliner" route="k" depart="431" departLane="free" departSpeed="random" />
    <vehicle id="800270" type="Berliner" route="e" depart="434" departLane="free" departSpeed="random" />
    <vehicle id="800271" type="Berliner" route="k" depart="435" departLane="free" departSpeed="random" />
    <vehicle id="800272" type="Berliner" route="c" depart="436" departLane="free" departSpeed="random" />
    <vehicle id="800273" type="Berliner" route="i" depart="436" departLane="free" departSpeed="random" />
    <vehicle id="800274" type="Berliner" route="m" depart="442" departLane="free" departSpeed="random" />
    <vehicle id="800275" type="Berliner" route="g" depart="447" departLane="free" departSpeed="random" />