<routes>
        
            <vType id="Raleigh" accel="2.0" decel="3.0" sigma="0.5" length="2.5" maxSpeed="5.6" color="0,255,255" guiShape="bicycle" width ="1.0" vClass="bicycle"/>  
        
            <route id="l" edges="a_3 3_c"/>
            <route id="ll" edges="a_3 3_d"/>
            <route id="lll" edges="a_3 3_6 6_e"/>
            <route id="lV" edges="a_3 3_6 6_f"/>
            <route id="V" edges="a_3 3_6 6_b"/>

            <route id="Vl" edges="b_6 6_f"/>
            <route id="Vll" edges="b_6 6_e"/>
            <route id="Vlll" edges="b_6 6_3 3_a"/>
            <route id="lX" edges="b_6 6_3 3_d"/> 
            <route id="X" edges="b_6 6_3 3_c"/>
            
            
            <route id="Xl" edges="d_3 3_c"/>
            <route id="Xll" edges="d_3 3_a "/>
            <route id="Xlll" edges="d_3 3_6 6_b"/>
            <route id="XlV" edges="d_3 3_6 6_f"/> 
            <route id="XV" edges="d_3 3_6 6_e"/>
            
            <route id="XVl" edges="c_3 3_a"/>
            <route id="XVll" edges="c_3 3_d"/>
            <route id="XVlll" edges="c_3 3_6 6_f"/>
            <route id="XlX" edges="c_3 3_6 6_e"/> 
            <route id="XX" edges="c_3 3_6 6_b"/>
            
            <route id="XXl" edges="f_6 6_b"/>
            <route id="XXll" edges="f_6 6_e"/>
            <route id="XXlll" edges="f_6 6_3 3_d"/>
            <route id="XXlV" edges="f_6 6_3 3_c"/> 
            <route id="XXV" edges="f_6 6_3 3_a"/>
            
            <route id="XXVl"  edges="e_6 6_b"/>
            <route id="XXVll" edges="e_6 6_f"/>
            <route id="XXVlll" edges="e_6 6_3 3_d"/>
            <route id="XXlX" edges="e_6 6_3 3_c"/> 
            <route id="XXX" edges="e_6 6_3 3_a"/>	
                        
        
    <vehicle id="400000" type="Raleigh" route="XXVll" depart="2" departLane="free" departSpeed="random" />
    <vehicle id="400001" type="Raleigh" route="Xl" depart="3" departLane="free" departSpeed="random" />
    <vehicle id="400002" type="Raleigh" route="XXll" depart="3" departLane="free" departSpeed="random" />
    <vehicle id="400003" type="Raleigh" route="XXVll" depart="3" departLane="free" departSpeed="random" />
    <vehicle id="400004" type="Raleigh" route="XXl" depart="4" departLane="free" departSpeed="random" />
    <vehicle id="400005" type="Raleigh" route="XVll" depart="9" departLane="free" departSpeed="random" />
    <vehicle id="400006" type="Raleigh" route="Vlll" depart="11" departLane="free" departSpeed="random" />
    <vehicle id="400007" type="Raleigh" route="XXll" depart="11" departLane="free" departSpeed="random" />
    <vehicle id="400008" type="Raleigh" route="ll" depart="17" departLane="free" departSpeed="random" />
    <vehicle id="400009" type="Raleigh" route="XVll" depart="25" departLane="free" departSpeed="random" />
    <vehicle id="400010" type="Raleigh" route="XVll" depart="27" departLane="free" departSpeed="random" />
    <vehicle id="400011" type="Raleigh" route="lV" depart="28" departLane="free" departSpeed="random" />
    <vehicle id="400012" type="Raleigh" route="ll" depart="32" departLane="free" departSpeed="random" />
    <vehicle id="400013" type="Raleigh" route="Xl" depart="34" departLane="free" departSpeed="random" />
    <vehicle id="400014" type="Raleigh" route="XXVll" depart="39" departLane="free" departSpeed="random" />
    <vehicle id="400015" type="Raleigh" route="lll" depart="40" departLane="free" departSpeed="random" />
    <vehicle id="400016" type="Raleigh" route="XXll" depart="40" departLane="free" departSpeed="random" />
    <vehicle id="400017" type="Raleigh" route="XXVll" depart="46" departLane="free" departSpeed="random" />
    <vehicle id="400018" type="Raleigh" route="Vlll" depart="48" departLane="free" departSpeed="random" />
    <vehicle id="400019" type="Raleigh" route="V" depart="53" departLane="free" departSpeed="random" />
    <vehicle id="400020" type="Raleigh" route="lX" depart="53" departLane="free" departSpeed="random" />
    <vehicle id="400021" type="Raleigh" route="Vlll" depart="54" departLane="free" departSpeed="random" />
    <vehicle id="400022" type="Raleigh" route="Vlll" depart="55" departLane="free" departSpeed="random" />
    <vehicle id="400023" type="Raleigh" route="Vlll" depart="56" departLane="free" departSpeed="random" />
    <vehicle id="400024" type="Raleigh" route="Vlll" depart="57" departLane="free" departSpeed="random" />
    <vehicle id="400025" type="Raleigh" route="XXll" depart="64" departLane="free" departSpeed="random" />
    <vehicle id="400026" type="Raleigh" route="XXll" depart="67" departLane="free" departSpeed="random" />
    <vehicle id="400027" type="Raleigh" route="lX" depart="69" departLane="free" departSpeed="random" />
    <vehicle id="400028" type="Raleigh" route="XVll" depart="69" departLane="free" departSpeed="random" />
    <vehicle id="400029" type="Raleigh" route="V" depart="72" departLane="free" departSpeed="random" />
    <vehicle id="400030" type="Raleigh" route="Xl" depart="73" departLane="free" departSpeed="random" />
    <vehicle id="400031" type="Raleigh" route="Xl" depart="75" departLane="free" departSpeed="random" />
    <vehicle id="400032" type="Raleigh" route="lll" depart="77" departLane="free" departSpeed="random" />
    <vehicle id="400033" type="Raleigh" route="Vlll" depart="80" departLane="free" departSpeed="random" />
    <vehicle id="400034" type="Raleigh" route="V" depart="83" departLane="free" departSpeed="random" />
    <vehicle id="400035" type="Raleigh" route="Vlll" depart="84" departLane="free" departSpeed="random" />
    <vehicle id="400036" type="Raleigh" route="V" depart="86" departLane="free" departSpeed="random" />
    <vehicle id="400037" type="Raleigh" route="V" depart="87" departLane="free" departSpeed="random" />
    <vehicle id="400038" type="Raleigh" route="V" depart="88" departLane="free" departSpeed="random" />
    <vehicle id="400039" type="Raleigh" route="Vlll" depart="88" departLane="free" departSpeed="random" />
    <vehicle id="400040" type="Raleigh" route="Vlll" depart="94" departLane="free" departSpeed="random" />
    <vehicle id="400041" type="Raleigh" route="lV" depart="95" departLane="free" departSpeed="random" />
    <vehicle id="400042" type="Raleigh" route="X" depart="98" departLane="free" departSpeed="random" />
    <vehicle id="400043" type="Raleigh" route="XX" depart="100" departLane="free" departSpeed="random" />
    <vehicle id="400044" type="Raleigh" route="XXVll" depart="100" departLane="free" departSpeed="random" />
    <vehicle id="400045" type="Raleigh" route="lll" depart="102" departLane="free" departSpeed="random" />
    <vehicle id="400046" type="Raleigh" route="XX" depart="105" departLane="free" departSpeed="random" />
    <vehicle id="400047" type="Raleigh" route="Vlll" depart="113" departLane="free" departSpeed="random" />
    <vehicle id="400048" type="Raleigh" route="Vl" depart="114" departLane="free" departSpeed="random" />
    <vehicle id="400049" type="Raleigh" route="Xl" depart="124" departLane="free" departSpeed="random" />
    <vehicle id="400050" type="Raleigh" route="V" depart="128" departLane="free" departSpeed="random" />
    <vehicle id="400051" type="Raleigh" route="l" depart="132" departLane="free" departSpeed="random" />
    <vehicle id="400052" type="Raleigh" route="Vlll" depart="132" departLane="free" departSpeed="random" />
    <vehicle id="400053" type="Raleigh" route="V" depart="134" departLane="free" departSpeed="random" />
    <vehicle id="400054" type="Raleigh" route="lV" depart="141" departLane="free" departSpeed="random" />
    <vehicle id="400055" type="Raleigh" route="V" depart="143" departLane="free" departSpeed="random" />
    <vehicle id="400056" type="Raleigh" route="Vlll" depart="143" departLane="free" departSpeed="random" />
    <vehicle id="400057" type="Raleigh" route="Vll" depart="144" departLane="free" departSpeed="random" />
    <vehicle id="400058" type="Raleigh" route="XXll" depart="151" departLane="free" departSpeed="random" />
    <vehicle id="400059" type="Raleigh" route="ll" depart="154" departLane="free" departSpeed="random" />
    <vehicle id="400060" type="Raleigh" route="XXVll" depart="154" departLane="free" departSpeed="random" />
    <vehicle id="400061" type="Raleigh" route="XXll" depart="159" departLane="free" departSpeed="random" />
    <vehicle id="400062" type="Raleigh" route="Xl" depart="167" departLane="free" departSpeed="random" />
    <vehicle id="400063" type="Raleigh" route="V" depart="168" departLane="free" departSpeed="random" />
    <vehicle id="400064" type="Raleigh" route="XXll" depart="174" departLane="free" departSpeed="random" />
    <vehicle id="400065" type="Raleigh" route="Xl" depart="176" departLane="free" departSpeed="random" />
    <vehicle id="400066" type="Raleigh" route="V" depart="177" departLane="free" departSpeed="random" />
    <vehicle id="400067" type="Raleigh" route="Vll" depart="177" departLane="free" departSpeed="random" />
    <vehicle id="400068" type="Raleigh" route="XVll" depart="177" departLane="free" departSpeed="random" />
    <vehicle id="400069" type="Raleigh" route="V" depart="178" departLane="free" departSpeed="random" />
    <vehicle id="400070" type="Raleigh" route="V" depart="179" departLane="free" departSpeed="random" />
    <vehicle id="400071" type="Raleigh" route="V" depart="182" departLane="free" departSpeed="random" />
    <vehicle id="400072" type="Raleigh" route="XXll" depart="183" departLane="free" departSpeed="random" />
    <vehicle id="400073" type="Raleigh" route="V" depart="196" departLane="free" departSpeed="random" />
    <vehicle id="400074" type="Raleigh" route="V" depart="197" departLane="free" departSpeed="random" />
    <vehicle id="400075" type="Raleigh" route="Vlll" depart="198" departLane="free" departSpeed="random" />
    <vehicle id="400076" type="Raleigh" route="Vlll" depart="199" departLane="free" departSpeed="random" />
    <vehicle id="400077" type="Raleigh" route="XVll" depart="202" departLane="free" departSpeed="random" />
    <vehicle id="400078" type="Raleigh" route="V" depart="205" departLane="free" departSpeed="random" />
    <vehicle id="400079" type="Raleigh" route="V" depart="208" departLane="free" departSpeed="random" />
    <vehicle id="400080" type="Raleigh" route="V" depart="209" departLane="free" departSpeed="random" />
    <vehicle id="400081" type="Raleigh" route="ll" depart="214" departLane="free" departSpeed="random" />
    <vehicle id="400082" type="Raleigh" route="lll" depart="216" departLane="free" departSpeed="random" />
    <vehicle id="400083" type="Raleigh" route="Vll" depart="216" departLane="free" departSpeed="random" />
    <vehicle id="400084" type="Raleigh" route="Vlll" depart="217" departLane="free" departSpeed="random" />
    <vehicle id="400085" type="Raleigh" route="XXl" depart="217" departLane="free" departSpeed="random" />
    <vehicle id="400086" type="Raleigh" route="Vlll" depart="228" departLane="free" departSpeed="random" />
    <vehicle id="400087" type="Raleigh" route="Vlll" depart="231" departLane="free" departSpeed="random" />
    <vehicle id="400088" type="Raleigh" route="XVll" depart="233" departLane="free" departSpeed="random" />
    <vehicle id="400089" type="Raleigh" route="Xl" depart="238" departLane="free" departSpeed="random" />
    <vehicle id="400090" type="Raleigh" route="V" depart="239" departLane="free" departSpeed="random" />
    <vehicle id="400091" type="Raleigh" route="Vlll" depart="240" departLane="free" departSpeed="random" />
    <vehicle id="400092" type="Raleigh" route="lV" depart="248" departLane="free" departSpeed="random" />
    <vehicle id="400093" type="Raleigh" route="XXll" depart="248" departLane="free" departSpeed="random" />
    <vehicle id="400094" type="Raleigh" route="V" depart="249" departLane="free" departSpeed="random" />
    <vehicle id="400095" type="Raleigh" route="Xl" depart="250" departLane="free" departSpeed="random" />
    <vehicle id="400096" type="Raleigh" route="V" depart="257" departLane="free" departSpeed="random" />
    <vehicle id="400097" type="Raleigh" route="Xl" depart="262" departLane="free" departSpeed="random" />
    <vehicle id="400098" type="Raleigh" route="XXll" depart="263" departLane="free" departSpeed="random" />
    <vehicle id="400099" type="Raleigh" route="lll" depart="264" departLane="free" departSpeed="random" />
    <vehicle id="400100" type="Raleigh" route="V" depart="265" departLane="free" departSpeed="random" />
    <vehicle id="400101" type="Raleigh" route="V" depart="268" departLane="free" departSpeed="random" />
    <vehicle id="400102" type="Raleigh" route="ll" depart="271" departLane="free" departSpeed="random" />
    <vehicle id="400103" type="Raleigh" route="Xl" depart="272" departLane="free" departSpeed="random" />
    <vehicle id="400104" type="Raleigh" route="Vlll" depart="274" departLane="free" departSpeed="random" />
    <vehicle id="400105" type="Raleigh" route="X" depart="289" departLane="free" departSpeed="random" />
    <vehicle id="400106" type="Raleigh" route="Vlll" depart="293" departLane="free" departSpeed="random" />
    <vehicle id="400107" type="Raleigh" route="XXVll" depart="295" departLane="free" departSpeed="random" />
    <vehicle id="400108" type="Raleigh" route="l" depart="296" departLane="free" departSpeed="random" />
    <vehicle id="400109" type="Raleigh" route="XXll" depart="299" departLane="free" departSpeed="random" />
    <vehicle id="400110" type="Raleigh" route="V" depart="301" departLane="free" departSpeed="random" />
    <vehicle id="400111" type="Raleigh" route="V" depart="306" departLane="free" departSpeed="random" />
    <vehicle id="400112" type="Raleigh" route="lll" depart="308" departLane="free" departSpeed="random" />
    <vehicle id="400113" type="Raleigh" route="XXVll" depart="308" departLane="free" departSpeed="random" />
    <vehicle id="400114" type="Raleigh" route="XVll" depart="310" departLane="free" departSpeed="random" />
    <vehicle id="400115" type="Raleigh" route="Vlll" depart="317" departLane="free" departSpeed="random" />
    <vehicle id="400116" type="Raleigh" route="Vlll" depart="318" departLane="free" departSpeed="random" />
    <vehicle id="400117" type="Raleigh" route="V" depart="323" departLane="free" departSpeed="random" />
    <vehicle id="400118" type="Raleigh" route="Vlll" depart="326" departLane="free" departSpeed="random" />
    <vehicle id="400119" type="Raleigh" route="XXll" depart="326" departLane="free" departSpeed="random" />
    <vehicle id="400120" type="Raleigh" route="Vlll" depart="328" departLane="free" departSpeed="random" />
    <vehicle id="400121" type="Raleigh" route="Xl" depart="329" departLane="free" departSpeed="random" />
    <vehicle id="400122" type="Raleigh" route="XXll" depart="329" departLane="free" departSpeed="random" />
    <vehicle id="400123" type="Raleigh" route="V" depart="332" departLane="free" departSpeed="random" />
    <vehicle id="400124" type="Raleigh" route="Vl" depart="334" departLane="free" departSpeed="random" />
    <vehicle id="400125" type="Raleigh" route="V" depart="342" departLane="free" departSpeed="random" />
    <vehicle id="400126" type="Raleigh" route="Vlll" depart="346" departLane="free" departSpeed="random" />
    <vehicle id="400127" type="Raleigh" route="lV" depart="355" departLane="free" departSpeed="random" />
    <vehicle id="400128" type="Raleigh" route="Vlll" depart="359" departLane="free" departSpeed="random" />
    <vehicle id="400129" type="Raleigh" route="XXVll" depart="361" departLane="free" departSpeed="random" />
    <vehicle id="400130" type="Raleigh" route="ll" depart="363" departLane="free" departSpeed="random" />
    <vehicle id="400131" type="Raleigh" route="V" depart="367" departLane="free" departSpeed="random" />
    <vehicle id="400132" type="Raleigh" route="Vlll" depart="370" departLane="free" departSpeed="random" />
    <vehicle id="400133" type="Raleigh" route="lV" depart="372" departLane="free" departSpeed="random" />
    <vehicle id="400134" type="Raleigh" route="Xlll" depart="373" departLane="free" departSpeed="random" />
    <vehicle id="400135" type="Raleigh" route="XXV" depart="374" departLane="free" departSpeed="random" />
    <vehicle id="400136" type="Raleigh" route="V" depart="383" departLane="free" departSpeed="random" />
    <vehicle id="400137" type="Raleigh" route="XXll" depart="383" departLane="free" departSpeed="random" />
    <vehicle id="400138" type="Raleigh" route="V" depart="384" departLane="free" departSpeed="random" />
    <vehicle id="400139" type="Raleigh" route="X" depart="388" departLane="free" departSpeed="random" />
    <vehicle id="400140" type="Raleigh" route="V" depart="390" departLane="free" departSpeed="random" />
    <vehicle id="400141" type="Raleigh" route="V" depart="392" departLane="free" departSpeed="random" />
    <vehicle id="400142" type="Raleigh" route="Vlll" depart="392" departLane="free" departSpeed="random" />
    <vehicle id="400143" type="Raleigh" route="V" depart="396" departLane="free" departSpeed="random" />
    <vehicle id="400144" type="Raleigh" route="XVll" depart="397" departLane="free" departSpeed="random" />
    <vehicle id="400145" type="Raleigh" route="V" depart="399" departLane="free" departSpeed="random" />
    <vehicle id="400146" type="Raleigh" route="lll" depart="404" departLane="free" departSpeed="random" />
    <vehicle id="400147" type="Raleigh" route="XXV" depart="406" departLane="free" departSpeed="random" />
    <vehicle id="400148" type="Raleigh" route="V" depart="407" departLane="free" departSpeed="random" />
    <vehicle id="400149" type="Raleigh" route="XX" depart="407" departLane="free" departSpeed="random" />
    <vehicle id="400150" type="Raleigh" route="Xl" depart="408" departLane="free" departSpeed="random" />
    <vehicle id="400151" type="Raleigh" route="Vll" depart="410" departLane="free" departSpeed="random" />
    <vehicle id="400152" type="Raleigh" route="Vlll" depart="410" departLane="free" departSpeed="random" />
    <vehicle id="400153" type="Raleigh" route="Xll" depart="412" departLane="free" departSpeed="random" />
    <vehicle id="400154" type="Raleigh" route="Vlll" depart="414" departLane="free" departSpeed="random" />
    <vehicle id="400155" type="Raleigh" route="Vlll" depart="422" departLane="free" departSpeed="random" />
    <vehicle id="400156" type="Raleigh" route="l" depart="425" departLane="free" departSpeed="random" />
    <vehicle id="400157" type="Raleigh" route="XVll" depart="430" departLane="free" departSpeed="random" />
    <vehicle id="400158" type="Raleigh" route="lV" depart="431" departLane="free" departSpeed="random" />
    <vehicle id="400159" type="Raleigh" route="V" depart="437" departLane="free" departSpeed="random" />
    <vehicle id="400160" type="Raleigh" route="Vl" depart="438" departLane="free" departSpeed="random" />
    <vehicle id="400161" type="Raleigh" route="XVl" depart="440" departLane="free" departSpeed="random" />
    <vehicle id="400162" type="Raleigh" route="XVll" depart="441" departLane="free" departSpeed="random" />
    <vehicle id="400163" type="Raleigh" route="XXVll" depart="441" departLane="free" departSpeed="random" />
    <vehicle id="400164" type="Raleigh" route="l" depart="442" departLane="free" departSpeed="random" />
    <vehicle id="400165" type="Raleigh" route="l" depart="443" departLane="free" departSpeed="random" />
    <vehicle id="400166" type="Raleigh" route="V" depart="447" departLane="free" departSpeed="random" />
    <vehicle id="400167" type="Raleigh" route="XXVll" depart="447" departLane="free" departSpeed="random" />
    <vehicle id="400168" type="Raleigh" route="V" depart="449" departLane="free" departSpeed="random" />
    <vehicle id="400169" type="Raleigh" route="XXVll" depart="449" departLane="free" departSpeed="random" />
    <vehicle id="400170" type="Raleigh" route="Vlll" depart="451" departLane="free" departSpeed="random" />
    <vehicle id="400171" type="Raleigh" route="V" depart="453" departLane="free" departSpeed="random" />
    <vehicle id="400172" type="Raleigh" route="Vlll" depart="457" departLane="free" departSpeed="random" />
    <vehicle id="400173" type="Raleigh" route="Vlll" depart="463" departLane="free" departSpeed="random" />
    <vehicle id="400174" type="Raleigh" route="lX" depart="464" departLane="free" departSpeed="random" />
    <vehicle id="400175" type="Raleigh" route="V" depart="465" departLane="free" departSpeed="random" />
    <vehicle id="400176" type="Raleigh" route="XXVll" depart="465" departLane="free" departSpeed="random" />
    <vehicle id="400177" type="Raleigh" route="lV" depart="466" departLane="free" departSpeed="random" />
    <vehicle id="400178" type="Raleigh" route="V" depart="470" departLane="free" departSpeed="random" />
    <vehicle id="400179" type="Raleigh" route="XVll" depart="470" departLane="free" departSpeed="random" />
    <vehicle id="400180" type="Raleigh" route="V" depart="480" departLane="free" departSpeed="random" />
    <vehicle id="400181" type="Raleigh" route="V" depart="481" departLane="free" departSpeed="random" />
    <vehicle id="400182" type="Raleigh" route="Vlll" depart="485" departLane="free" departSpeed="random" />
    <vehicle id="400183" type="Raleigh" route="V" depart="487" departLane="free" departSpeed="random" />
    <vehicle id="400184" type="Raleigh" route="lX" depart="489" departLane="free" departSpeed="random" />
    <vehicle id="400185" type="Raleigh" route="XXVll" depart="489" departLane="free" departSpeed="random" />
    <vehicle id="400186" type="Raleigh" route="Vlll" depart="490" departLane="free" departSpeed="random" />
    <vehicle id="400187" type="Raleigh" route="Vlll" depart="493" departLane="free" departSpeed="random" />
    <vehicle id="400188" type="Raleigh" route="Vlll" depart="494" departLane="free" departSpeed="random" />
    <vehicle id="400189" type="Raleigh" route="Xl" depart="503" departLane="free" departSpeed="random" />
    <vehicle id="400190" type="Raleigh" route="V" depart="506" departLane="free" departSpeed="random" />
    <vehicle id="400191" type="Raleigh" route="l" depart="508" departLane="free" departSpeed="random" />
    <vehicle id="400192" type="Raleigh" route="Xl" depart="508" departLane="free" departSpeed="random" />
    <vehicle id="400193" type="Raleigh" route="Vlll" depart="511" departLane="free" departSpeed="random" />
    <vehicle id="400194" type="Raleigh" route="ll" depart="517" departLane="free" departSpeed="random" />
    <vehicle id="400195" type="Raleigh" route="Vll" depart="517" departLane="free" departSpeed="random" />
    <vehicle id="400196" type="Raleigh" route="lV" depart="518" departLane="free" departSpeed="random" />
    <vehicle id="400197" type="Raleigh" route="X" depart="520" departLane="free" departSpeed="random" />
    <vehicle id="400198" type="Raleigh" route="Vlll" depart="523" departLane="free" departSpeed="random" />
    <vehicle id="400199" type="Raleigh" route="V" depart="526" departLane="free" departSpeed="random" />
    <vehicle id="400200" type="Raleigh" route="Vl" depart="536" departLane="free" departSpeed="random" />
    <vehicle id="400201" type="Raleigh" route="Xl" depart="544" departLane="free" departSpeed="random" />
    <vehicle id="400202" type="Raleigh" route="XXV" depart="544" departLane="free" departSpeed="random" />
    <vehicle id="400203" type="Raleigh" route="V" depart="545" departLane="free" departSpeed="random" />
    <vehicle id="400204" type="Raleigh" route="Vlll" depart="546" departLane="free" departSpeed="random" />
    <vehicle id="400205" type="Raleigh" route="Vl" depart="547" departLane="free" departSpeed="random" />
    <vehicle id="400206" type="Raleigh" route="Vlll" depart="554" departLane="free" departSpeed="random" />
    <vehicle id="400207" type="Raleigh" route="l" depart="555" departLane="free" departSpeed="random" />
    <vehicle id="400208" type="Raleigh" route="Vl" depart="555" departLane="free" departSpeed="random" />
    <vehicle id="400209" type="Raleigh" route="Vlll" depart="562" departLane="free" departSpeed="random" />
    <vehicle id="400210" type="Raleigh" route="Vlll" depart="565" departLane="free" departSpeed="random" />
    <vehicle id="400211" type="Raleigh" route="V" depart="570" departLane="free" departSpeed="random" />
    <vehicle id="400212" type="Raleigh" route="Vlll" depart="572" departLane="free" departSpeed="random" />
    <vehicle id="400213" type="Raleigh" route="V" depart="575" departLane="free" departSpeed="random" />
    <vehicle id="400214" type="Raleigh" route="XXV" depart="577" departLane="free" departSpeed="random" />
    <vehicle id="400215" type="Raleigh" route="Vlll" depart="580" departLane="free" departSpeed="random" />
    <vehicle id="400216" type="Raleigh" route="ll" depart="583" departLane="free" departSpeed="random" />
    <vehicle id="400217" type="Raleigh" route="l" depart="588" departLane="free" departSpeed="random" />
    <vehicle id="400218" type="Raleigh" route="Vlll" depart="589" departLane="free" departSpeed="random" />
    <vehicle id="400219" type="Raleigh" route="X" depart="591" departLane="free" departSpeed="random" />
    <vehicle id="400220" type="Raleigh" route="XVll" depart="595" departLane="free" departSpeed="random" />
    <vehicle id="400221" type="Raleigh" route="l" depart="596" departLane="free" departSpeed="random" />
    <vehicle id="400222" type="Raleigh" route="V" depart="597" departLane="free" departSpeed="random" />
    <vehicle id="400223" type="Raleigh" route="Vlll" depart="597" departLane="free" departSpeed="random" />
    <vehicle id="400224" type="Raleigh" route="ll" depart="598" departLane="free" departSpeed="random" />
    <vehicle id="400225" type="Raleigh" route="Xl" depart="604" departLane="free" departSpeed="random" />
    <vehicle id="400226" type="Raleigh" route="V" depart="605" departLane="free" departSpeed="random" />
    <vehicle id="400227" type="Raleigh" route="Xl" depart="605" departLane="free" departSpeed="random" />
    <vehicle id="400228" type="Raleigh" route="XXVll" depart="606" departLane="free" departSpeed="random" />
    <vehicle id="400229" type="Raleigh" route="Vlll" depart="611" departLane="free" departSpeed="random" />
    <vehicle id="400230" type="Raleigh" route="XVll" depart="611" departLane="free" departSpeed="random" />
    <vehicle id="400231" type="Raleigh" route="Vlll" depart="614" departLane="free" departSpeed="random" />
    <vehicle id="400232" type="Raleigh" route="XXll" depart="626" departLane="free" departSpeed="random" />
    <vehicle id="400233" type="Raleigh" route="Vlll" depart="628" departLane="free" departSpeed="random" />
    <vehicle id="400234" type="Raleigh" route="lX" depart="634" departLane="free" departSpeed="random" />
    <vehicle id="400235" type="Raleigh" route="ll" depart="641" departLane="free" departSpeed="random" />
    <vehicle id="400236" type="Raleigh" route="XlV" depart="641" departLane="free" departSpeed="random" />
    <vehicle id="400237" type="Raleigh" route="Xl" depart="647" departLane="free" departSpeed="random" />
    <vehicle id="400238" type="Raleigh" route="Vlll" depart="649" departLane="free" departSpeed="random" />
    <vehicle id="400239" type="Raleigh" route="Vlll" depart="652" departLane="free" departSpeed="random" />
    <vehicle id="400240" type="Raleigh" route="Vlll" depart="654" departLane="free" departSpeed="random" />
    <vehicle id="400241" type="Raleigh" route="XXl" depart="654" departLane="free" departSpeed="random" />
    <vehicle id="400242" type="Raleigh" route="V" depart="662" departLane="free" departSpeed="random" />
    <vehicle id="400243" type="Raleigh" route="Vlll" depart="662" departLane="free" departSpeed="random" />
    <vehicle id="400244" type="Raleigh" route="V" depart="664" departLane="free" departSpeed="random" />
    <vehicle id="400245" type="Raleigh" route="Xl" depart="668" departLane="free" departSpeed="random" />
    <vehicle id="400246" type="Raleigh" route="XVll" depart="672" departLane="free" departSpeed="random" />
    <vehicle id="400247" type="Raleigh" route="Xll" depart="673" departLane="free" departSpeed="random" />
    <vehicle id="400248" type="Raleigh" route="V" depart="678" departLane="free" departSpeed="random" />
    <vehicle id="400249" type="Raleigh" route="Vlll" depart="679" departLane="free" departSpeed="random" />
    <vehicle id="400250" type="Raleigh" route="Vlll" depart="681" departLane="free" departSpeed="random" />
    <vehicle id="400251" type="Raleigh" route="Vl" depart="685" departLane="free" departSpeed="random" />
    <vehicle id="400252" type="Raleigh" route="XXVll" depart="696" departLane="free" departSpeed="random" />
    <vehicle id="400253" type="Raleigh" route="V" depart="697" departLane="free" departSpeed="random" />
    <vehicle id="400254" type="Raleigh" route="Vlll" depart="697" departLane="free" departSpeed="random" />
    <vehicle id="400255" type="Raleigh" route="V" depart="703" departLane="free" departSpeed="random" />
    <vehicle id="400256" type="Raleigh" route="ll" depart="705" departLane="free" departSpeed="random" />
    <vehicle id="400257" type="Raleigh" route="Vlll" depart="706" departLane="free" departSpeed="random" />
    <vehicle id="400258" type="Raleigh" route="XVll" depart="708" departLane="free" departSpeed="random" />
    <vehicle id="400259" type="Raleigh" route="l" depart="709" departLane="free" departSpeed="random" />
    <vehicle id="400260" type="Raleigh" route="XXll" depart="711" departLane="free" departSpeed="random" />
    <vehicle id="400261" type="Raleigh" route="lX" depart="713" departLane="free" departSpeed="random" />
    <vehicle id="400262" type="Raleigh" route="Xl" depart="714" departLane="free" departSpeed="random" />
    <vehicle id="400263" type="Raleigh" route="Vlll" depart="716" departLane="free" departSpeed="random" />
    <vehicle id="400264" type="Raleigh" route="V" depart="721" departLane="free" departSpeed="random" />