<routes>


            <vType id="Berliner" accel="0.5" decel="1.0" sigma="0.5" length="0.5" maxSpeed="1.5" minGap="1.0" color="255,165,0" guiShape="pedestrian"  width ="0.5" vClass="pedestrian"/>  

            
            <route id="a" edges="a_3 3_6"/>

            <route id="c" edges="6_3 3_a"/>
            
            <route id="e" edges="c_3 3_d"/>

            <route id="g" edges="d_3 3_c"/>

            <route id="i" edges="3_6 6_b"/>
 
            
            <route id="k" edges="b_6 6_3"/>
                        
            <route id="m" edges="e_6 6_f"/>
           
            <route id="o" edges="f_6 6_e"/>
                        
        
    <vehicle id="800000" type="Berliner" route="a" depart="0" departLane="free" departSpeed="random" />
    <vehicle id="800001" type="Berliner" route="a" depart="1" departLane="free" departSpeed="random" />
    <vehicle id="800002" type="Berliner" route="c" depart="1" departLane="free" departSpeed="random" />
    <vehicle id="800003" type="Berliner" route="e" depart="1" departLane="free" departSpeed="random" />
    <vehicle id="800004" type="Berliner" route="m" depart="1" departLane="free" departSpeed="random" />
    <vehicle id="800005" type="Berliner" route="k" depart="3" departLane="free" departSpeed="random" />
    <vehicle id="800006" type="Berliner" route="m" depart="3" departLane="free" departSpeed="random" />
    <vehicle id="800007" type="Berliner" route="i" depart="4" departLane="free" departSpeed="random" />
    <vehicle id="800008" type="Berliner" route="i" depart="5" departLane="free" departSpeed="random" />
    <vehicle id="800009" type="Berliner" route="k" depart="5" departLane="free" departSpeed="random" />
    <vehicle id="800010" type="Berliner" route="a" depart="6" departLane="free" departSpeed="random" />
    <vehicle id="800011" type="Berliner" route="c" depart="6" departLane="free" departSpeed="random" />
    <vehicle id="800012" type="Berliner" route="c" depart="7" departLane="free" departSpeed="random" />
    <vehicle id="800013" type="Berliner" route="c" depart="8" departLane="free" departSpeed="random" />
    <vehicle id="800014" type="Berliner" route="i" depart="8" departLane="free" departSpeed="random" />
    <vehicle id="800015" type="Berliner" route="k" depart="8" departLane="free" departSpeed="random" />
    <vehicle id="800016" type="Berliner" route="c" depart="9" departLane="free" departSpeed="random" />
    <vehicle id="800017" type="Berliner" route="i" depart="10" departLane="free" departSpeed="random" />
    <vehicle id="800018" type="Berliner" route="g" depart="11" departLane="free" departSpeed="random" />
    <vehicle id="800019" type="Berliner" route="m" depart="12" departLane="free" departSpeed="random" />
    <vehicle id="800020" type="Berliner" route="a" depart="13" departLane="free" departSpeed="random" />
    <vehicle id="800021" type="Berliner" route="o" depart="13" departLane="free" departSpeed="random" />
    <vehicle id="800022" type="Berliner" route="a" depart="14" departLane="free" departSpeed="random" />
    <vehicle id="800023" type="Berliner" route="i" depart="16" departLane="free" departSpeed="random" />
    <vehicle id="800024" type="Berliner" route="k" depart="16" departLane="free" departSpeed="random" />
    <vehicle id="800025" type="Berliner" route="i" depart="17" departLane="free" departSpeed="random" />
    <vehicle id="800026" type="Berliner" route="c" depart="19" departLane="free" departSpeed="random" />
    <vehicle id="800027" type="Berliner" route="e" depart="19" departLane="free" departSpeed="random" />
    <vehicle id="800028" type="Berliner" route="a" depart="22" departLane="free" departSpeed="random" />
    <vehicle id="800029" type="Berliner" route="i" depart="22" departLane="free" departSpeed="random" />
    <vehicle id="800030" type="Berliner" route="k" depart="22" departLane="free" departSpeed="random" />
    <vehicle id="800031" type="Berliner" route="a" depart="23" departLane="free" departSpeed="random" />
    <vehicle id="800032" type="Berliner" route="i" depart="23" departLane="free" departSpeed="random" />
    <vehicle id="800033" type="Berliner" route="m" depart="24" departLane="free" departSpeed="random" />
    <vehicle id="800034" type="Berliner" route="i" depart="25" departLane="free" departSpeed="random" />
    <vehicle id="800035" type="Berliner" route="a" depart="26" departLane="free" departSpeed="random" />
    <vehicle id="800036" type="Berliner" route="a" depart="27" departLane="free" departSpeed="random" />
    <vehicle id="800037" type="Berliner" route="e" depart="27" departLane="free" departSpeed="random" />
    <vehicle id="800038" type="Berliner" route="i" depart="27" departLane="free" departSpeed="random" />
    <vehicle id="800039" type="Berliner" route="k" depart="27" departLane="free" departSpeed="random" />
    <vehicle id="800040" type="Berliner" route="a" depart="28" departLane="free" departSpeed="random" />
    <vehicle id="800041" type="Berliner" route="c" depart="28" departLane="free" departSpeed="random" />
    <vehicle id="800042" type="Berliner" route="k" depart="28" departLane="free" departSpeed="random" />
    <vehicle id="800043" type="Berliner" route="k" depart="29" departLane="free" departSpeed="random" />
    <vehicle id="800044" type="Berliner" route="a" depart="30" departLane="free" departSpeed="random" />
    <vehicle id="800045" type="Berliner" route="a" depart="31" departLane="free" departSpeed="random" />
    <vehicle id="800046" type="Berliner" route="i" depart="31" departLane="free" departSpeed="random" />
    <vehicle id="800047" type="Berliner" route="c" depart="33" departLane="free" departSpeed="random" />
    <vehicle id="800048" type="Berliner" route="i" depart="33" departLane="free" departSpeed="random" />
    <vehicle id="800049" type="Berliner" route="m" depart="33" departLane="free" departSpeed="random" />
    <vehicle id="800050" type="Berliner" route="c" depart="34" departLane="free" departSpeed="random" />
    <vehicle id="800051" type="Berliner" route="i" depart="34" departLane="free" departSpeed="random" />
    <vehicle id="800052" type="Berliner" route="a" depart="35" departLane="free" departSpeed="random" />
    <vehicle id="800053" type="Berliner" route="c" depart="35" departLane="free" departSpeed="random" />
    <vehicle id="800054" type="Berliner" route="k" depart="35" departLane="free" departSpeed="random" />
    <vehicle id="800055" type="Berliner" route="a" depart="36" departLane="free" departSpeed="random" />
    <vehicle id="800056" type="Berliner" route="a" depart="37" departLane="free" departSpeed="random" />
    <vehicle id="800057" type="Berliner" route="c" depart="37" departLane="free" departSpeed="random" />
    <vehicle id="800058" type="Berliner" route="e" depart="38" departLane="free" departSpeed="random" />
    <vehicle id="800059" type="Berliner" route="m" depart="38" departLane="free" departSpeed="random" />
    <vehicle id="800060" type="Berliner" route="i" depart="39" departLane="free" departSpeed="random" />
    <vehicle id="800061" type="Berliner" route="c" depart="41" departLane="free" departSpeed="random" />
    <vehicle id="800062" type="Berliner" route="i" depart="41" departLane="free" departSpeed="random" />
    <vehicle id="800063" type="Berliner" route="a" depart="42" departLane="free" departSpeed="random" />
    <vehicle id="800064" type="Berliner" route="i" depart="42" departLane="free" departSpeed="random" />
    <vehicle id="800065" type="Berliner" route="k" depart="42" departLane="free" departSpeed="random" />
    <vehicle id="800066" type="Berliner" route="o" depart="42" departLane="free" departSpeed="random" />
    <vehicle id="800067" type="Berliner" route="e" depart="43" departLane="free" departSpeed="random" />
    <vehicle id="800068" type="Berliner" route="a" depart="44" departLane="free" departSpeed="random" />
    <vehicle id="800069" type="Berliner" route="c" depart="44" departLane="free" departSpeed="random" />
    <vehicle id="800070" type="Berliner" route="a" depart="45" departLane="free" departSpeed="random" />
    <vehicle id="800071" type="Berliner" route="i" depart="46" departLane="free" departSpeed="random" />
    <vehicle id="800072" type="Berliner" route="e" depart="47" departLane="free" departSpeed="random" />
    <vehicle id="800073" type="Berliner" route="i" depart="47" departLane="free" departSpeed="random" />
    <vehicle id="800074" type="Berliner" route="k" depart="47" departLane="free" departSpeed="random" />
    <vehicle id="800075" type="Berliner" route="a" depart="49" departLane="free" departSpeed="random" />
    <vehicle id="800076" type="Berliner" route="e" depart="49" departLane="free" departSpeed="random" />
    <vehicle id="800077" type="Berliner" route="i" depart="49" departLane="free" departSpeed="random" />
    <vehicle id="800078" type="Berliner" route="o" depart="49" departLane="free" departSpeed="random" />
    <vehicle id="800079" type="Berliner" route="a" depart="50" departLane="free" departSpeed="random" />
    <vehicle id="800080" type="Berliner" route="i" depart="50" departLane="free" departSpeed="random" />
    <vehicle id="800081" type="Berliner" route="i" depart="51" departLane="free" departSpeed="random" />
    <vehicle id="800082" type="Berliner" route="k" depart="51" departLane="free" departSpeed="random" />
    <vehicle id="800083" type="Berliner" route="o" depart="51" departLane="free" departSpeed="random" />
    <vehicle id="800084" type="Berliner" route="c" depart="52" departLane="free" departSpeed="random" />
    <vehicle id="800085" type="Berliner" route="o" depart="52" departLane="free" departSpeed="random" />
    <vehicle id="800086" type="Berliner" route="e" depart="53" departLane="free" departSpeed="random" />
    <vehicle id="800087" type="Berliner" route="i" depart="53" departLane="free" departSpeed="random" />
    <vehicle id="800088" type="Berliner" route="o" depart="53" departLane="free" departSpeed="random" />
    <vehicle id="800089" type="Berliner" route="c" depart="55" departLane="free" departSpeed="random" />
    <vehicle id="800090" type="Berliner" route="g" depart="55" departLane="free" departSpeed="random" />
    <vehicle id="800091" type="Berliner" route="o" depart="55" departLane="free" departSpeed="random" />
    <vehicle id="800092" type="Berliner" route="a" depart="56" departLane="free" departSpeed="random" />
    <vehicle id="800093" type="Berliner" route="o" depart="56" departLane="free" departSpeed="random" />
    <vehicle id="800094" type="Berliner" route="c" depart="57" departLane="free" departSpeed="random" />
    <vehicle id="800095" type="Berliner" route="g" depart="57" departLane="free" departSpeed="random" />
    <vehicle id="800096" type="Berliner" route="m" depart="57" departLane="free" departSpeed="random" />
    <vehicle id="800097" type="Berliner" route="a" depart="58" departLane="free" departSpeed="random" />
    <vehicle id="800098" type="Berliner" route="c" depart="59" departLane="free" departSpeed="random" />
    <vehicle id="800099" type="Berliner" route="i" depart="60" departLane="free" departSpeed="random" />
    <vehicle id="800100" type="Berliner" route="g" depart="61" departLane="free" departSpeed="random" />
    <vehicle id="800101" type="Berliner" route="a" depart="62" departLane="free" departSpeed="random" />
    <vehicle id="800102" type="Berliner" route="c" depart="62" departLane="free" departSpeed="random" />
    <vehicle id="800103" type="Berliner" route="i" depart="62" departLane="free" departSpeed="random" />
    <vehicle id="800104" type="Berliner" route="k" depart="62" departLane="free" departSpeed="random" />
    <vehicle id="800105" type="Berliner" route="m" depart="62" departLane="free" departSpeed="random" />
    <vehicle id="800106" type="Berliner" route="i" depart="63" departLane="free" departSpeed="random" />
    <vehicle id="800107" type="Berliner" route="m" depart="64" departLane="free" departSpeed="random" />
    <vehicle id="800108" type="Berliner" route="c" depart="65" departLane="free" departSpeed="random" />
    <vehicle id="800109" type="Berliner" route="k" depart="65" departLane="free" departSpeed="random" />
    <vehicle id="800110" type="Berliner" route="m" depart="65" departLane="free" departSpeed="random" />
    <vehicle id="800111" type="Berliner" route="a" depart="66" departLane="free" departSpeed="random" />
    <vehicle id="800112" type="Berliner" route="i" depart="66" departLane="free" departSpeed="random" />
    <vehicle id="800113" type="Berliner" route="k" depart="66" departLane="free" departSpeed="random" />
    <vehicle id="800114" type="Berliner" route="k" depart="67" departLane="free" departSpeed="random" />
    <vehicle id="800115" type="Berliner" route="e" depart="68" departLane="free" departSpeed="random" />
    <vehicle id="800116" type="Berliner" route="k" depart="68" departLane="free" departSpeed="random" />
    <vehicle id="800117" type="Berliner" route="e" depart="69" departLane="free" departSpeed="random" />
    <vehicle id="800118" type="Berliner" route="k" depart="69" departLane="free" departSpeed="random" />
    <vehicle id="800119" type="Berliner" route="a" depart="71" departLane="free" departSpeed="random" />
    <vehicle id="800120" type="Berliner" route="g" depart="74" departLane="free" departSpeed="random" />
    <vehicle id="800121" type="Berliner" route="a" depart="75" departLane="free" departSpeed="random" />
    <vehicle id="800122" type="Berliner" route="k" depart="75" departLane="free" departSpeed="random" />
    <vehicle id="800123" type="Berliner" route="c" depart="76" departLane="free" departSpeed="random" />
    <vehicle id="800124" type="Berliner" route="k" depart="76" departLane="free" departSpeed="random" />
    <vehicle id="800125" type="Berliner" route="m" depart="77" departLane="free" departSpeed="random" />
    <vehicle id="800126" type="Berliner" route="k" depart="78" departLane="free" departSpeed="random" />
    <vehicle id="800127" type="Berliner" route="a" depart="79" departLane="free" departSpeed="random" />
    <vehicle id="800128" type="Berliner" route="a" depart="80" departLane="free" departSpeed="random" />
    <vehicle id="800129" type="Berliner" route="k" depart="80" departLane="free" departSpeed="random" />
    <vehicle id="800130" type="Berliner" route="c" depart="81" departLane="free" departSpeed="random" />
    <vehicle id="800131" type="Berliner" route="a" depart="82" departLane="free" departSpeed="random" />
    <vehicle id="800132" type="Berliner" route="o" depart="82" departLane="free" departSpeed="random" />
    <vehicle id="800133" type="Berliner" route="c" depart="83" departLane="free" departSpeed="random" />
    <vehicle id="800134" type="Berliner" route="i" depart="83" departLane="free" departSpeed="random" />
    <vehicle id="800135" type="Berliner" route="k" depart="83" departLane="free" departSpeed="random" />
    <vehicle id="800136" type="Berliner" route="c" depart="84" departLane="free" departSpeed="random" />
    <vehicle id="800137" type="Berliner" route="i" depart="84" departLane="free" departSpeed="random" />
    <vehicle id="800138" type="Berliner" route="a" depart="85" departLane="free" departSpeed="random" />
    <vehicle id="800139" type="Berliner" route="a" depart="86" departLane="free" departSpeed="random" />
    <vehicle id="800140" type="Berliner" route="g" depart="87" departLane="free" departSpeed="random" />
    <vehicle id="800141" type="Berliner" route="i" depart="87" departLane="free" departSpeed="random" />
    <vehicle id="800142" type="Berliner" route="a" depart="88" departLane="free" departSpeed="random" />
    <vehicle id="800143" type="Berliner" route="c" depart="88" departLane="free" departSpeed="random" />
    <vehicle id="800144" type="Berliner" route="c" depart="89" departLane="free" departSpeed="random" />
    <vehicle id="800145" type="Berliner" route="o" depart="89" departLane="free" departSpeed="random" />
    <vehicle id="800146" type="Berliner" route="i" depart="90" departLane="free" departSpeed="random" />
    <vehicle id="800147" type="Berliner" route="a" depart="91" departLane="free" departSpeed="random" />
    <vehicle id="800148" type="Berliner" route="a" depart="92" departLane="free" departSpeed="random" />
    <vehicle id="800149" type="Berliner" route="k" depart="92" departLane="free" departSpeed="random" />
    <vehicle id="800150" type="Berliner" route="c" depart="93" departLane="free" departSpeed="random" />
    <vehicle id="800151" type="Berliner" route="a" depart="94" departLane="free" departSpeed="random" />
    <vehicle id="800152" type="Berliner" route="i" depart="96" departLane="free" departSpeed="random" />
    <vehicle id="800153" type="Berliner" route="k" depart="96" departLane="free" departSpeed="random" />
    <vehicle id="800154" type="Berliner" route="m" depart="96" departLane="free" departSpeed="random" />
    <vehicle id="800155" type="Berliner" route="o" depart="96" departLane="free" departSpeed="random" />
    <vehicle id="800156" type="Berliner" route="c" depart="97" departLane="free" departSpeed="random" />
    <vehicle id="800157" type="Berliner" route="k" depart="97" departLane="free" departSpeed="random" />
    <vehicle id="800158" type="Berliner" route="a" depart="99" departLane="free" departSpeed="random" />
    <vehicle id="800159" type="Berliner" route="c" depart="99" departLane="free" departSpeed="random" />
    <vehicle id="800160" type="Berliner" route="i" depart="99" departLane="free" departSpeed="random" />
    <vehicle id="800161" type="Berliner" route="a" depart="101" departLane="free" departSpeed="random" />
    <vehicle id="800162" type="Berliner" route="m" depart="101" departLane="free" departSpeed="random" />
    <vehicle id="800163" type="Berliner" route="k" depart="102" departLane="free" departSpeed="random" />
    <vehicle id="800164" type="Berliner" route="c" depart="103" departLane="free" departSpeed="random" />
    <vehicle id="800165" type="Berliner" route="i" depart="103" departLane="free" departSpeed="random" />
    <vehicle id="800166" type="Berliner" route="c" depart="104" departLane="free" departSpeed="random" />
    <vehicle id="800167" type="Berliner" route="o" depart="104" departLane="free" departSpeed="random" />
    <vehicle id="800168" type="Berliner" route="a" depart="105" departLane="free" departSpeed="random" />
    <vehicle id="800169" type="Berliner" route="k" depart="105" departLane="free" departSpeed="random" />
    <vehicle id="800170" type="Berliner" route="i" depart="106" departLane="free" departSpeed="random" />
    <vehicle id="800171" type="Berliner" route="k" depart="106" departLane="free" departSpeed="random" />
    <vehicle id="800172" type="Berliner" route="m" depart="106" departLane="free" departSpeed="random" />
    <vehicle id="800173" type="Berliner" route="o" depart="108" departLane="free" departSpeed="random" />
    <vehicle id="800174" type="Berliner" route="a" depart="109" departLane="free" departSpeed="random" />
    <vehicle id="800175" type="Berliner" route="c" depart="109" departLane="free" departSpeed="random" />
    <vehicle id="800176" type="Berliner" route="e" depart="109" departLane="free" departSpeed="random" />
    <vehicle id="800177" type="Berliner" route="a" depart="110" departLane="free" departSpeed="random" />
    <vehicle id="800178" type="Berliner" route="c" depart="110" departLane="free" departSpeed="random" />
    <vehicle id="800179" type="Berliner" route="g" depart="110" departLane="free" departSpeed="random" />
    <vehicle id="800180" type="Berliner" route="k" depart="110" departLane="free" departSpeed="random" />
    <vehicle id="800181" type="Berliner" route="a" depart="111" departLane="free" departSpeed="random" />
    <vehicle id="800182" type="Berliner" route="a" depart="112" departLane="free" departSpeed="random" />
    <vehicle id="800183" type="Berliner" route="c" depart="112" departLane="free" departSpeed="random" />
    <vehicle id="800184" type="Berliner" route="a" depart="113" departLane="free" departSpeed="random" />
    <vehicle id="800185" type="Berliner" route="c" depart="113" departLane="free" departSpeed="random" />
    <vehicle id="800186" type="Berliner" route="i" depart="113" departLane="free" departSpeed="random" />
    <vehicle id="800187" type="Berliner" route="o" depart="113" departLane="free" departSpeed="random" />
    <vehicle id="800188" type="Berliner" route="c" depart="114" departLane="free" departSpeed="random" />
    <vehicle id="800189" type="Berliner" route="e" depart="114" departLane="free" departSpeed="random" />
    <vehicle id="800190" type="Berliner" route="a" depart="115" departLane="free" departSpeed="random" />
    <vehicle id="800191" type="Berliner" route="c" depart="115" departLane="free" departSpeed="random" />
    <vehicle id="800192" type="Berliner" route="a" depart="116" departLane="free" departSpeed="random" />
    <vehicle id="800193" type="Berliner" route="k" depart="117" departLane="free" departSpeed="random" />
    <vehicle id="800194" type="Berliner" route="m" depart="117" departLane="free" departSpeed="random" />
    <vehicle id="800195" type="Berliner" route="a" depart="118" departLane="free" departSpeed="random" />
    <vehicle id="800196" type="Berliner" route="g" depart="118" departLane="free" departSpeed="random" />
    <vehicle id="800197" type="Berliner" route="a" depart="119" departLane="free" departSpeed="random" />
    <vehicle id="800198" type="Berliner" route="c" depart="119" departLane="free" departSpeed="random" />
    <vehicle id="800199" type="Berliner" route="a" depart="120" departLane="free" departSpeed="random" />
    <vehicle id="800200" type="Berliner" route="c" depart="120" departLane="free" departSpeed="random" />
    <vehicle id="800201" type="Berliner" route="i" depart="120" departLane="free" departSpeed="random" />
    <vehicle id="800202" type="Berliner" route="e" depart="121" departLane="free" departSpeed="random" />
    <vehicle id="800203" type="Berliner" route="i" depart="121" departLane="free" departSpeed="random" />
    <vehicle id="800204" type="Berliner" route="a" depart="122" departLane="free" departSpeed="random" />
    <vehicle id="800205" type="Berliner" route="a" depart="123" departLane="free" departSpeed="random" />
    <vehicle id="800206" type="Berliner" route="i" depart="123" departLane="free" departSpeed="random" />
    <vehicle id="800207" type="Berliner" route="k" depart="123" departLane="free" departSpeed="random" />
    <vehicle id="800208" type="Berliner" route="o" depart="123" departLane="free" departSpeed="random" />
    <vehicle id="800209" type="Berliner" route="o" depart="124" departLane="free" departSpeed="random" />
    <vehicle id="800210" type="Berliner" route="c" depart="126" departLane="free" departSpeed="random" />
    <vehicle id="800211" type="Berliner" route="c" depart="127" departLane="free" departSpeed="random" />
    <vehicle id="800212" type="Berliner" route="c" depart="128" departLane="free" departSpeed="random" />
    <vehicle id="800213" type="Berliner" route="i" depart="129" departLane="free" departSpeed="random" />
    <vehicle id="800214" type="Berliner" route="i" depart="130" departLane="free" departSpeed="random" />
    <vehicle id="800215" type="Berliner" route="c" depart="131" departLane="free" departSpeed="random" />
    <vehicle id="800216" type="Berliner" route="i" depart="131" departLane="free" departSpeed="random" />
    <vehicle id="800217" type="Berliner" route="k" depart="131" departLane="free" departSpeed="random" />
    <vehicle id="800218" type="Berliner" route="m" depart="131" departLane="free" departSpeed="random" />
    <vehicle id="800219" type="Berliner" route="c" depart="133" departLane="free" departSpeed="random" />
    <vehicle id="800220" type="Berliner" route="i" depart="133" departLane="free" departSpeed="random" />
    <vehicle id="800221" type="Berliner" route="g" depart="134" departLane="free" departSpeed="random" />
    <vehicle id="800222" type="Berliner" route="i" depart="135" departLane="free" departSpeed="random" />
    <vehicle id="800223" type="Berliner" route="i" depart="136" departLane="free" departSpeed="random" />
    <vehicle id="800224" type="Berliner" route="m" depart="136" departLane="free" departSpeed="random" />
    <vehicle id="800225" type="Berliner" route="a" depart="137" departLane="free" departSpeed="random" />
    <vehicle id="800226" type="Berliner" route="c" depart="137" departLane="free" departSpeed="random" />
    <vehicle id="800227" type="Berliner" route="i" depart="138" departLane="free" departSpeed="random" />
    <vehicle id="800228" type="Berliner" route="k" depart="138" departLane="free" departSpeed="random" />
    <vehicle id="800229" type="Berliner" route="k" depart="140" departLane="free" departSpeed="random" />
    <vehicle id="800230" type="Berliner" route="a" depart="142" departLane="free" departSpeed="random" />
    <vehicle id="800231" type="Berliner" route="e" depart="142" departLane="free" departSpeed="random" />
    <vehicle id="800232" type="Berliner" route="g" depart="143" departLane="free" departSpeed="random" />
    <vehicle id="800233" type="Berliner" route="i" depart="143" departLane="free" departSpeed="random" />
    <vehicle id="800234" type="Berliner" route="m" depart="143" departLane="free" departSpeed="random" />
    <vehicle id="800235" type="Berliner" route="c" depart="145" departLane="free" departSpeed="random" />
    <vehicle id="800236" type="Berliner" route="i" depart="146" departLane="free" departSpeed="random" />
    <vehicle id="800237" type="Berliner" route="k" depart="146" departLane="free" departSpeed="random" />
    <vehicle id="800238" type="Berliner" route="c" depart="147" departLane="free" departSpeed="random" />
    <vehicle id="800239" type="Berliner" route="e" depart="148" departLane="free" departSpeed="random" />
    <vehicle id="800240" type="Berliner" route="a" depart="149" departLane="free" departSpeed="random" />
    <vehicle id="800241" type="Berliner" route="k" depart="149" departLane="free" departSpeed="random" />
    <vehicle id="800242" type="Berliner" route="m" depart="150" departLane="free" departSpeed="random" />
    <vehicle id="800243" type="Berliner" route="a" depart="151" departLane="free" departSpeed="random" />
    <vehicle id="800244" type="Berliner" route="i" depart="151" departLane="free" departSpeed="random" />
    <vehicle id="800245" type="Berliner" route="k" depart="151" departLane="free" departSpeed="random" />
    <vehicle id="800246" type="Berliner" route="o" depart="151" departLane="free" departSpeed="random" />
    <vehicle id="800247" type="Berliner" route="k" depart="152" departLane="free" departSpeed="random" />
    <vehicle id="800248" type="Berliner" route="o" depart="152" departLane="free" departSpeed="random" />
    <vehicle id="800249" type="Berliner" route="e" depart="154" departLane="free" departSpeed="random" />
    <vehicle id="800250" type="Berliner" route="k" depart="154" departLane="free" departSpeed="random" />
    <vehicle id="800251" type="Berliner" route="c" depart="155" departLane="free" departSpeed="random" />
    <vehicle id="800252" type="Berliner" route="c" depart="156" departLane="free" departSpeed="random" />
    <vehicle id="800253" type="Berliner" route="i" depart="156" departLane="free" departSpeed="random" />
    <vehicle id="800254" type="Berliner" route="a" depart="157" departLane="free" departSpeed="random" />
    <vehicle id="800255" type="Berliner" route="i" depart="158" departLane="free" departSpeed="random" />
    <vehicle id="800256" type="Berliner" route="k" depart="158" departLane="free" departSpeed="random" />
    <vehicle id="800257" type="Berliner" route="g" depart="159" departLane="free" departSpeed="random" />
    <vehicle id="800258" type="Berliner" route="k" depart="159" departLane="free" departSpeed="random" />
    <vehicle id="800259" type="Berliner" route="k" depart="160" departLane="free" departSpeed="random" />
    <vehicle id="800260" type="Berliner" route="c" depart="161" departLane="free" departSpeed="random" />
    <vehicle id="800261" type="Berliner" route="i" depart="161" departLane="free" departSpeed="random" />
    <vehicle id="800262" type="Berliner" route="i" depart="162" departLane="free" departSpeed="random" />
    <vehicle id="800263" type="Berliner" route="c" depart="163" departLane="free" departSpeed="random" />
    <vehicle id="800264" type="Berliner" route="i" depart="163" departLane="free" departSpeed="random" />
    <vehicle id="800265" type="Berliner" route="k" depart="164" departLane="free" departSpeed="random" />
    <vehicle id="800266" type="Berliner" route="a" depart="165" departLane="free" departSpeed="random" />
    <vehicle id="800267" type="Berliner" route="c" depart="166" departLane="free" departSpeed="random" />
    <vehicle id="800268" type="Berliner" route="i" depart="166" departLane="free" departSpeed="random" />
    <vehicle id="800269" type="Berliner" route="k" depart="166" departLane="free" departSpeed="random" />
    <vehicle id="800270" type="Berliner" route="a" depart="167" departLane="free" departSpeed="random" />
    <vehicle id="800271" type="Berliner" route="c" depart="167" departLane="free" departSpeed="random" />
    <vehicle id="800272" type="Berliner" route="i" depart="167" departLane="free" departSpeed="random" />
    <vehicle id="800273" type="Berliner" route="k" depart="167" departLane="free" departSpeed="random" />
    <vehicle id="800274" type="Berliner" route="a" depart="168" departLane="free" departSpeed="random" />
    <vehicle id="800275" type="Berliner" route="k" depart="168" departLane="free" departSpeed="random" />
    <vehicle id="800276" type="Berliner" route="o" depart="168" departLane="free" departSpeed="random" />
    <vehicle id="800277" type="Berliner" route="c" depart="169" departLane="free" departSpeed="random" />