<routes>
        
            <vType id="Raleigh" accel="0.8" decel="1.5" sigma="0.5" length="1.6" maxSpeed="5.8" color="255,255,0" guiShape="bicycle" vClass="bicycle" emissionClass="zero"/>  
        
            <route id="l" edges="a_3 3_c"/>
            <route id="ll" edges="a_3 3_d"/>
            <route id="lll" edges="a_3 3_6 6_e"/>
            <route id="lV" edges="a_3 3_6 6_f"/>
            <route id="V" edges="a_3 3_6 6_b"/>

            <route id="Vl" edges="b_6 6_f"/>
            <route id="Vll" edges="b_6 6_e"/>
            <route id="Vlll" edges="b_6 6_3 3_a"/>
            <route id="lX" edges="b_6 6_3 3_d"/> 
            <route id="X" edges="b_6 6_3 3_c"/>
            
            
            <route id="Xl" edges="d_3 3_c"/>
            <route id="Xll" edges="d_3 3_a "/>
            <route id="Xlll" edges="d_3 3_6 6_b"/>
            <route id="XlV" edges="d_3 3_6 6_f"/> 
            <route id="XV" edges="d_3 3_6 6_e"/>
            
            <route id="XVl" edges="c_3 3_a"/>
            <route id="XVll" edges="c_3 3_d"/>
            <route id="XVlll" edges="c_3 3_6 6_f"/>
            <route id="XlX" edges="c_3 3_6 6_e"/> 
            <route id="XX" edges="c_3 3_6 6_b"/>
            
            <route id="XXl" edges="f_6 6_b"/>
            <route id="XXll" edges="f_6 6_e"/>
            <route id="XXlll" edges="f_6 6_3 3_d"/>
            <route id="XXlV" edges="f_6 6_3 3_c"/> 
            <route id="XXV" edges="f_6 6_3 3_a"/>
            
            <route id="XXVl"  edges="e_6 6_b"/>
            <route id="XXVll" edges="e_6 6_f"/>
            <route id="XXVlll" edges="e_6 6_3 3_d"/>
            <route id="XXlX" edges="e_6 6_3 3_c"/> 
            <route id="XXX" edges="e_6 6_3 3_a"/>	
                        
        
    <vehicle id="400000" type="Raleigh" route="X" depart="1" departLane="free" departSpeed="random" />
    <vehicle id="400001" type="Raleigh" route="lX" depart="2" departLane="free" departSpeed="random" />
    <vehicle id="400002" type="Raleigh" route="X" depart="5" departLane="free" departSpeed="random" />
    <vehicle id="400003" type="Raleigh" route="XXVll" depart="5" departLane="free" departSpeed="random" />
    <vehicle id="400004" type="Raleigh" route="Vlll" depart="15" departLane="free" departSpeed="random" />
    <vehicle id="400005" type="Raleigh" route="Vlll" depart="19" departLane="free" departSpeed="random" />
    <vehicle id="400006" type="Raleigh" route="Vll" depart="21" departLane="free" departSpeed="random" />
    <vehicle id="400007" type="Raleigh" route="Vlll" depart="23" departLane="free" departSpeed="random" />
    <vehicle id="400008" type="Raleigh" route="V" depart="24" departLane="free" departSpeed="random" />
    <vehicle id="400009" type="Raleigh" route="V" depart="31" departLane="free" departSpeed="random" />
    <vehicle id="400010" type="Raleigh" route="XVll" depart="31" departLane="free" departSpeed="random" />
    <vehicle id="400011" type="Raleigh" route="Vl" depart="32" departLane="free" departSpeed="random" />
    <vehicle id="400012" type="Raleigh" route="V" depart="36" departLane="free" departSpeed="random" />
    <vehicle id="400013" type="Raleigh" route="Vlll" depart="42" departLane="free" departSpeed="random" />
    <vehicle id="400014" type="Raleigh" route="V" depart="43" departLane="free" departSpeed="random" />
    <vehicle id="400015" type="Raleigh" route="XXX" depart="43" departLane="free" departSpeed="random" />
    <vehicle id="400016" type="Raleigh" route="XXV" depart="46" departLane="free" departSpeed="random" />
    <vehicle id="400017" type="Raleigh" route="Vlll" depart="50" departLane="free" departSpeed="random" />
    <vehicle id="400018" type="Raleigh" route="Vll" depart="51" departLane="free" departSpeed="random" />
    <vehicle id="400019" type="Raleigh" route="Vlll" depart="59" departLane="free" departSpeed="random" />
    <vehicle id="400020" type="Raleigh" route="V" depart="63" departLane="free" departSpeed="random" />
    <vehicle id="400021" type="Raleigh" route="V" depart="68" departLane="free" departSpeed="random" />
    <vehicle id="400022" type="Raleigh" route="XVll" depart="69" departLane="free" departSpeed="random" />
    <vehicle id="400023" type="Raleigh" route="Xl" depart="77" departLane="free" departSpeed="random" />
    <vehicle id="400024" type="Raleigh" route="Vlll" depart="80" departLane="free" departSpeed="random" />
    <vehicle id="400025" type="Raleigh" route="Vl" depart="85" departLane="free" departSpeed="random" />
    <vehicle id="400026" type="Raleigh" route="XXll" depart="87" departLane="free" departSpeed="random" />
    <vehicle id="400027" type="Raleigh" route="V" depart="94" departLane="free" departSpeed="random" />
    <vehicle id="400028" type="Raleigh" route="XVll" depart="96" departLane="free" departSpeed="random" />
    <vehicle id="400029" type="Raleigh" route="X" depart="99" departLane="free" departSpeed="random" />
    <vehicle id="400030" type="Raleigh" route="V" depart="104" departLane="free" departSpeed="random" />
    <vehicle id="400031" type="Raleigh" route="Vl" depart="105" departLane="free" departSpeed="random" />
    <vehicle id="400032" type="Raleigh" route="XXVll" depart="109" departLane="free" departSpeed="random" />
    <vehicle id="400033" type="Raleigh" route="Vlll" depart="113" departLane="free" departSpeed="random" />
    <vehicle id="400034" type="Raleigh" route="XXll" depart="114" departLane="free" departSpeed="random" />
    <vehicle id="400035" type="Raleigh" route="ll" depart="117" departLane="free" departSpeed="random" />
    <vehicle id="400036" type="Raleigh" route="XVll" depart="121" departLane="free" departSpeed="random" />
    <vehicle id="400037" type="Raleigh" route="V" depart="126" departLane="free" departSpeed="random" />
    <vehicle id="400038" type="Raleigh" route="Xl" depart="131" departLane="free" departSpeed="random" />
    <vehicle id="400039" type="Raleigh" route="Vlll" depart="132" departLane="free" departSpeed="random" />
    <vehicle id="400040" type="Raleigh" route="lll" depart="136" departLane="free" departSpeed="random" />
    <vehicle id="400041" type="Raleigh" route="Xlll" depart="136" departLane="free" departSpeed="random" />
    <vehicle id="400042" type="Raleigh" route="Vlll" depart="140" departLane="free" departSpeed="random" />
    <vehicle id="400043" type="Raleigh" route="Vlll" depart="141" departLane="free" departSpeed="random" />
    <vehicle id="400044" type="Raleigh" route="XXll" depart="146" departLane="free" departSpeed="random" />
    <vehicle id="400045" type="Raleigh" route="XXVll" depart="146" departLane="free" departSpeed="random" />
    <vehicle id="400046" type="Raleigh" route="XXVl" depart="147" departLane="free" departSpeed="random" />
    <vehicle id="400047" type="Raleigh" route="Vlll" depart="150" departLane="free" departSpeed="random" />
    <vehicle id="400048" type="Raleigh" route="XXll" depart="150" departLane="free" departSpeed="random" />
    <vehicle id="400049" type="Raleigh" route="Vlll" depart="155" departLane="free" departSpeed="random" />
    <vehicle id="400050" type="Raleigh" route="X" depart="163" departLane="free" departSpeed="random" />
    <vehicle id="400051" type="Raleigh" route="lV" depart="174" departLane="free" departSpeed="random" />
    <vehicle id="400052" type="Raleigh" route="XVll" depart="177" departLane="free" departSpeed="random" />
    <vehicle id="400053" type="Raleigh" route="V" depart="178" departLane="free" departSpeed="random" />
    <vehicle id="400054" type="Raleigh" route="V" depart="179" departLane="free" departSpeed="random" />
    <vehicle id="400055" type="Raleigh" route="lV" depart="181" departLane="free" departSpeed="random" />
    <vehicle id="400056" type="Raleigh" route="Xl" depart="181" departLane="free" departSpeed="random" />
    <vehicle id="400057" type="Raleigh" route="XVll" depart="190" departLane="free" departSpeed="random" />
    <vehicle id="400058" type="Raleigh" route="V" depart="192" departLane="free" departSpeed="random" />
    <vehicle id="400059" type="Raleigh" route="Vlll" depart="203" departLane="free" departSpeed="random" />
    <vehicle id="400060" type="Raleigh" route="Vlll" depart="210" departLane="free" departSpeed="random" />
    <vehicle id="400061" type="Raleigh" route="X" depart="217" departLane="free" departSpeed="random" />
    <vehicle id="400062" type="Raleigh" route="XVll" depart="218" departLane="free" departSpeed="random" />
    <vehicle id="400063" type="Raleigh" route="Vll" depart="224" departLane="free" departSpeed="random" />
    <vehicle id="400064" type="Raleigh" route="Vlll" depart="228" departLane="free" departSpeed="random" />
    <vehicle id="400065" type="Raleigh" route="XXVll" depart="229" departLane="free" departSpeed="random" />
    <vehicle id="400066" type="Raleigh" route="XXVll" depart="232" departLane="free" departSpeed="random" />
    <vehicle id="400067" type="Raleigh" route="V" depart="237" departLane="free" departSpeed="random" />
    <vehicle id="400068" type="Raleigh" route="Vl" depart="239" departLane="free" departSpeed="random" />
    <vehicle id="400069" type="Raleigh" route="XXll" depart="239" departLane="free" departSpeed="random" />
    <vehicle id="400070" type="Raleigh" route="V" depart="247" departLane="free" departSpeed="random" />
    <vehicle id="400071" type="Raleigh" route="XVll" depart="248" departLane="free" departSpeed="random" />
    <vehicle id="400072" type="Raleigh" route="ll" depart="254" departLane="free" departSpeed="random" />
    <vehicle id="400073" type="Raleigh" route="ll" depart="257" departLane="free" departSpeed="random" />
    <vehicle id="400074" type="Raleigh" route="Vll" depart="264" departLane="free" departSpeed="random" />
    <vehicle id="400075" type="Raleigh" route="V" depart="265" departLane="free" departSpeed="random" />
    <vehicle id="400076" type="Raleigh" route="Vlll" depart="266" departLane="free" departSpeed="random" />
    <vehicle id="400077" type="Raleigh" route="Vlll" depart="267" departLane="free" departSpeed="random" />
    <vehicle id="400078" type="Raleigh" route="V" depart="271" departLane="free" departSpeed="random" />
    <vehicle id="400079" type="Raleigh" route="ll" depart="272" departLane="free" departSpeed="random" />
    <vehicle id="400080" type="Raleigh" route="Vlll" depart="272" departLane="free" departSpeed="random" />
    <vehicle id="400081" type="Raleigh" route="V" depart="275" departLane="free" departSpeed="random" />
    <vehicle id="400082" type="Raleigh" route="Vlll" depart="280" departLane="free" departSpeed="random" />
    <vehicle id="400083" type="Raleigh" route="l" depart="290" departLane="free" departSpeed="random" />
    <vehicle id="400084" type="Raleigh" route="Vlll" depart="304" departLane="free" departSpeed="random" />
    <vehicle id="400085" type="Raleigh" route="XVll" depart="306" departLane="free" departSpeed="random" />
    <vehicle id="400086" type="Raleigh" route="Vlll" depart="309" departLane="free" departSpeed="random" />
    <vehicle id="400087" type="Raleigh" route="Vll" depart="312" departLane="free" departSpeed="random" />
    <vehicle id="400088" type="Raleigh" route="Vlll" depart="321" departLane="free" departSpeed="random" />
    <vehicle id="400089" type="Raleigh" route="V" depart="322" departLane="free" departSpeed="random" />
    <vehicle id="400090" type="Raleigh" route="V" depart="325" departLane="free" departSpeed="random" />
    <vehicle id="400091" type="Raleigh" route="XXll" depart="325" departLane="free" departSpeed="random" />
    <vehicle id="400092" type="Raleigh" route="Vlll" depart="327" departLane="free" departSpeed="random" />
    <vehicle id="400093" type="Raleigh" route="ll" depart="328" departLane="free" departSpeed="random" />
    <vehicle id="400094" type="Raleigh" route="XXll" depart="335" departLane="free" departSpeed="random" />
    <vehicle id="400095" type="Raleigh" route="ll" depart="341" departLane="free" departSpeed="random" />
    <vehicle id="400096" type="Raleigh" route="XXVll" depart="344" departLane="free" departSpeed="random" />
    <vehicle id="400097" type="Raleigh" route="lV" depart="345" departLane="free" departSpeed="random" />
    <vehicle id="400098" type="Raleigh" route="V" depart="345" departLane="free" departSpeed="random" />
    <vehicle id="400099" type="Raleigh" route="lll" depart="351" departLane="free" departSpeed="random" />
    <vehicle id="400100" type="Raleigh" route="V" depart="351" departLane="free" departSpeed="random" />
    <vehicle id="400101" type="Raleigh" route="Vlll" depart="356" departLane="free" departSpeed="random" />
    <vehicle id="400102" type="Raleigh" route="XXVl" depart="359" departLane="free" departSpeed="random" />
    <vehicle id="400103" type="Raleigh" route="V" depart="364" departLane="free" departSpeed="random" />
    <vehicle id="400104" type="Raleigh" route="X" depart="365" departLane="free" departSpeed="random" />
    <vehicle id="400105" type="Raleigh" route="Vlll" depart="366" departLane="free" departSpeed="random" />
    <vehicle id="400106" type="Raleigh" route="lV" depart="369" departLane="free" departSpeed="random" />
    <vehicle id="400107" type="Raleigh" route="Vl" depart="370" departLane="free" departSpeed="random" />
    <vehicle id="400108" type="Raleigh" route="Xl" depart="372" departLane="free" departSpeed="random" />
    <vehicle id="400109" type="Raleigh" route="ll" depart="377" departLane="free" departSpeed="random" />
    <vehicle id="400110" type="Raleigh" route="V" depart="377" departLane="free" departSpeed="random" />
    <vehicle id="400111" type="Raleigh" route="XXll" depart="377" departLane="free" departSpeed="random" />
    <vehicle id="400112" type="Raleigh" route="Vll" depart="379" departLane="free" departSpeed="random" />
    <vehicle id="400113" type="Raleigh" route="ll" depart="380" departLane="free" departSpeed="random" />
    <vehicle id="400114" type="Raleigh" route="Vlll" depart="384" departLane="free" departSpeed="random" />
    <vehicle id="400115" type="Raleigh" route="XXll" depart="384" departLane="free" departSpeed="random" />
    <vehicle id="400116" type="Raleigh" route="Vlll" depart="387" departLane="free" departSpeed="random" />
    <vehicle id="400117" type="Raleigh" route="V" depart="392" departLane="free" departSpeed="random" />
    <vehicle id="400118" type="Raleigh" route="Vlll" depart="396" departLane="free" departSpeed="random" />
    <vehicle id="400119" type="Raleigh" route="ll" depart="416" departLane="free" departSpeed="random" />
    <vehicle id="400120" type="Raleigh" route="XXVll" depart="420" departLane="free" departSpeed="random" />
    <vehicle id="400121" type="Raleigh" route="Vlll" depart="422" departLane="free" departSpeed="random" />
    <vehicle id="400122" type="Raleigh" route="lV" depart="426" departLane="free" departSpeed="random" />
    <vehicle id="400123" type="Raleigh" route="V" depart="427" departLane="free" departSpeed="random" />
    <vehicle id="400124" type="Raleigh" route="l" depart="435" departLane="free" departSpeed="random" />
    <vehicle id="400125" type="Raleigh" route="Vlll" depart="439" departLane="free" departSpeed="random" />
    <vehicle id="400126" type="Raleigh" route="lll" depart="441" departLane="free" departSpeed="random" />
    <vehicle id="400127" type="Raleigh" route="Vlll" depart="442" departLane="free" departSpeed="random" />
    <vehicle id="400128" type="Raleigh" route="XXll" depart="447" departLane="free" departSpeed="random" />
    <vehicle id="400129" type="Raleigh" route="XXll" depart="452" departLane="free" departSpeed="random" />
    <vehicle id="400130" type="Raleigh" route="Vlll" depart="457" departLane="free" departSpeed="random" />
    <vehicle id="400131" type="Raleigh" route="Vlll" depart="459" departLane="free" departSpeed="random" />
    <vehicle id="400132" type="Raleigh" route="lll" depart="462" departLane="free" departSpeed="random" />
    <vehicle id="400133" type="Raleigh" route="V" depart="462" departLane="free" departSpeed="random" />
    <vehicle id="400134" type="Raleigh" route="Vlll" depart="462" departLane="free" departSpeed="random" />
    <vehicle id="400135" type="Raleigh" route="lV" depart="463" departLane="free" departSpeed="random" />
    <vehicle id="400136" type="Raleigh" route="l" depart="470" departLane="free" departSpeed="random" />
    <vehicle id="400137" type="Raleigh" route="Vlll" depart="473" departLane="free" departSpeed="random" />
    <vehicle id="400138" type="Raleigh" route="Xl" depart="475" departLane="free" departSpeed="random" />
    <vehicle id="400139" type="Raleigh" route="V" depart="477" departLane="free" departSpeed="random" />
    <vehicle id="400140" type="Raleigh" route="V" depart="478" departLane="free" departSpeed="random" />
    <vehicle id="400141" type="Raleigh" route="Vlll" depart="479" departLane="free" departSpeed="random" />
    <vehicle id="400142" type="Raleigh" route="l" depart="486" departLane="free" departSpeed="random" />
    <vehicle id="400143" type="Raleigh" route="Vlll" depart="486" departLane="free" departSpeed="random" />
    <vehicle id="400144" type="Raleigh" route="Xl" depart="487" departLane="free" departSpeed="random" />
    <vehicle id="400145" type="Raleigh" route="Vlll" depart="488" departLane="free" departSpeed="random" />
    <vehicle id="400146" type="Raleigh" route="XVll" depart="491" departLane="free" departSpeed="random" />
    <vehicle id="400147" type="Raleigh" route="Vlll" depart="492" departLane="free" departSpeed="random" />
    <vehicle id="400148" type="Raleigh" route="ll" depart="503" departLane="free" departSpeed="random" />
    <vehicle id="400149" type="Raleigh" route="lV" depart="510" departLane="free" departSpeed="random" />
    <vehicle id="400150" type="Raleigh" route="XXll" depart="511" departLane="free" departSpeed="random" />
    <vehicle id="400151" type="Raleigh" route="X" depart="517" departLane="free" departSpeed="random" />
    <vehicle id="400152" type="Raleigh" route="Vlll" depart="518" departLane="free" departSpeed="random" />
    <vehicle id="400153" type="Raleigh" route="XVll" depart="518" departLane="free" departSpeed="random" />
    <vehicle id="400154" type="Raleigh" route="XXll" depart="520" departLane="free" departSpeed="random" />
    <vehicle id="400155" type="Raleigh" route="l" depart="523" departLane="free" departSpeed="random" />
    <vehicle id="400156" type="Raleigh" route="lll" depart="525" departLane="free" departSpeed="random" />
    <vehicle id="400157" type="Raleigh" route="Vlll" depart="535" departLane="free" departSpeed="random" />
    <vehicle id="400158" type="Raleigh" route="V" depart="541" departLane="free" departSpeed="random" />
    <vehicle id="400159" type="Raleigh" route="l" depart="544" departLane="free" departSpeed="random" />
    <vehicle id="400160" type="Raleigh" route="XXVll" depart="544" departLane="free" departSpeed="random" />
    <vehicle id="400161" type="Raleigh" route="Xl" depart="545" departLane="free" departSpeed="random" />
    <vehicle id="400162" type="Raleigh" route="V" depart="549" departLane="free" departSpeed="random" />
    <vehicle id="400163" type="Raleigh" route="Vlll" depart="551" departLane="free" departSpeed="random" />
    <vehicle id="400164" type="Raleigh" route="XVll" depart="551" departLane="free" departSpeed="random" />
    <vehicle id="400165" type="Raleigh" route="XVll" depart="556" departLane="free" departSpeed="random" />
    <vehicle id="400166" type="Raleigh" route="Vlll" depart="559" departLane="free" departSpeed="random" />
    <vehicle id="400167" type="Raleigh" route="XVll" depart="559" departLane="free" departSpeed="random" />
    <vehicle id="400168" type="Raleigh" route="V" depart="566" departLane="free" departSpeed="random" />
    <vehicle id="400169" type="Raleigh" route="XVll" depart="568" departLane="free" departSpeed="random" />
    <vehicle id="400170" type="Raleigh" route="V" depart="580" departLane="free" departSpeed="random" />
    <vehicle id="400171" type="Raleigh" route="XVll" depart="581" departLane="free" departSpeed="random" />
    <vehicle id="400172" type="Raleigh" route="Vll" depart="582" departLane="free" departSpeed="random" />
    <vehicle id="400173" type="Raleigh" route="V" depart="583" departLane="free" departSpeed="random" />
    <vehicle id="400174" type="Raleigh" route="Vlll" depart="588" departLane="free" departSpeed="random" />
    <vehicle id="400175" type="Raleigh" route="ll" depart="589" departLane="free" departSpeed="random" />
    <vehicle id="400176" type="Raleigh" route="V" depart="591" departLane="free" departSpeed="random" />
    <vehicle id="400177" type="Raleigh" route="XVll" depart="596" departLane="free" departSpeed="random" />
    <vehicle id="400178" type="Raleigh" route="XXVll" depart="601" departLane="free" departSpeed="random" />
    <vehicle id="400179" type="Raleigh" route="Vlll" depart="603" departLane="free" departSpeed="random" />
    <vehicle id="400180" type="Raleigh" route="XXVll" depart="603" departLane="free" departSpeed="random" />
    <vehicle id="400181" type="Raleigh" route="V" depart="606" departLane="free" departSpeed="random" />
    <vehicle id="400182" type="Raleigh" route="XXVlll" depart="614" departLane="free" departSpeed="random" />
    <vehicle id="400183" type="Raleigh" route="Vlll" depart="620" departLane="free" departSpeed="random" />
    <vehicle id="400184" type="Raleigh" route="XXVll" depart="621" departLane="free" departSpeed="random" />
    <vehicle id="400185" type="Raleigh" route="Vlll" depart="629" departLane="free" departSpeed="random" />
    <vehicle id="400186" type="Raleigh" route="XXll" depart="631" departLane="free" departSpeed="random" />
    <vehicle id="400187" type="Raleigh" route="XVll" depart="632" departLane="free" departSpeed="random" />
    <vehicle id="400188" type="Raleigh" route="V" depart="633" departLane="free" departSpeed="random" />
    <vehicle id="400189" type="Raleigh" route="XXX" depart="644" departLane="free" departSpeed="random" />
    <vehicle id="400190" type="Raleigh" route="V" depart="647" departLane="free" departSpeed="random" />
    <vehicle id="400191" type="Raleigh" route="XXVll" depart="647" departLane="free" departSpeed="random" />
    <vehicle id="400192" type="Raleigh" route="XXV" depart="650" departLane="free" departSpeed="random" />
    <vehicle id="400193" type="Raleigh" route="XXX" depart="652" departLane="free" departSpeed="random" />
    <vehicle id="400194" type="Raleigh" route="V" depart="666" departLane="free" departSpeed="random" />
    <vehicle id="400195" type="Raleigh" route="Vlll" depart="667" departLane="free" departSpeed="random" />
    <vehicle id="400196" type="Raleigh" route="XVll" depart="668" departLane="free" departSpeed="random" />
    <vehicle id="400197" type="Raleigh" route="V" depart="671" departLane="free" departSpeed="random" />
    <vehicle id="400198" type="Raleigh" route="XXVll" depart="671" departLane="free" departSpeed="random" />
    <vehicle id="400199" type="Raleigh" route="XVlll" depart="678" departLane="free" departSpeed="random" />
    <vehicle id="400200" type="Raleigh" route="V" depart="681" departLane="free" departSpeed="random" />
    <vehicle id="400201" type="Raleigh" route="V" depart="683" departLane="free" departSpeed="random" />
    <vehicle id="400202" type="Raleigh" route="Vlll" depart="685" departLane="free" departSpeed="random" />
    <vehicle id="400203" type="Raleigh" route="V" depart="695" departLane="free" departSpeed="random" />
    <vehicle id="400204" type="Raleigh" route="XXVl" depart="697" departLane="free" departSpeed="random" />
    <vehicle id="400205" type="Raleigh" route="ll" depart="699" departLane="free" departSpeed="random" />
    <vehicle id="400206" type="Raleigh" route="V" depart="700" departLane="free" departSpeed="random" />
    <vehicle id="400207" type="Raleigh" route="Vll" depart="700" departLane="free" departSpeed="random" />
    <vehicle id="400208" type="Raleigh" route="X" depart="702" departLane="free" departSpeed="random" />
    <vehicle id="400209" type="Raleigh" route="V" depart="705" departLane="free" departSpeed="random" />
    <vehicle id="400210" type="Raleigh" route="Xl" depart="709" departLane="free" departSpeed="random" />
    <vehicle id="400211" type="Raleigh" route="V" depart="712" departLane="free" departSpeed="random" />
    <vehicle id="400212" type="Raleigh" route="XVll" depart="712" departLane="free" departSpeed="random" />
    <vehicle id="400213" type="Raleigh" route="XVll" depart="714" departLane="free" departSpeed="random" />
    <vehicle id="400214" type="Raleigh" route="lV" depart="718" departLane="free" departSpeed="random" />
    <vehicle id="400215" type="Raleigh" route="V" depart="718" departLane="free" departSpeed="random" />
    <vehicle id="400216" type="Raleigh" route="V" depart="721" departLane="free" departSpeed="random" />
    <vehicle id="400217" type="Raleigh" route="Vlll" depart="723" departLane="free" departSpeed="random" />
    <vehicle id="400218" type="Raleigh" route="Vll" depart="724" departLane="free" departSpeed="random" />
    <vehicle id="400219" type="Raleigh" route="V" depart="732" departLane="free" departSpeed="random" />
    <vehicle id="400220" type="Raleigh" route="Xlll" depart="734" departLane="free" departSpeed="random" />
    <vehicle id="400221" type="Raleigh" route="V" depart="737" departLane="free" departSpeed="random" />
    <vehicle id="400222" type="Raleigh" route="V" depart="743" departLane="free" departSpeed="random" />
    <vehicle id="400223" type="Raleigh" route="X" depart="749" departLane="free" departSpeed="random" />
    <vehicle id="400224" type="Raleigh" route="XXll" depart="749" departLane="free" departSpeed="random" />
    <vehicle id="400225" type="Raleigh" route="V" depart="750" departLane="free" departSpeed="random" />
    <vehicle id="400226" type="Raleigh" route="Vlll" depart="751" departLane="free" departSpeed="random" />
    <vehicle id="400227" type="Raleigh" route="Xl" depart="751" departLane="free" departSpeed="random" />
    <vehicle id="400228" type="Raleigh" route="Xl" depart="752" departLane="free" departSpeed="random" />
    <vehicle id="400229" type="Raleigh" route="XXll" depart="766" departLane="free" departSpeed="random" />
    <vehicle id="400230" type="Raleigh" route="Vlll" depart="767" departLane="free" departSpeed="random" />
    <vehicle id="400231" type="Raleigh" route="V" depart="771" departLane="free" departSpeed="random" />
    <vehicle id="400232" type="Raleigh" route="Vlll" depart="771" departLane="free" departSpeed="random" />
    <vehicle id="400233" type="Raleigh" route="Xl" depart="771" departLane="free" departSpeed="random" />
    <vehicle id="400234" type="Raleigh" route="X" depart="774" departLane="free" departSpeed="random" />
    <vehicle id="400235" type="Raleigh" route="XXll" depart="774" departLane="free" departSpeed="random" />
    <vehicle id="400236" type="Raleigh" route="Vlll" depart="778" departLane="free" departSpeed="random" />
    <vehicle id="400237" type="Raleigh" route="lX" depart="782" departLane="free" departSpeed="random" />
    <vehicle id="400238" type="Raleigh" route="Vlll" depart="789" departLane="free" departSpeed="random" />
    <vehicle id="400239" type="Raleigh" route="XXVll" depart="789" departLane="free" departSpeed="random" />
    <vehicle id="400240" type="Raleigh" route="Vlll" depart="796" departLane="free" departSpeed="random" />
    <vehicle id="400241" type="Raleigh" route="XVll" depart="799" departLane="free" departSpeed="random" />
    <vehicle id="400242" type="Raleigh" route="ll" depart="802" departLane="free" departSpeed="random" />
    <vehicle id="400243" type="Raleigh" route="Xlll" depart="806" departLane="free" departSpeed="random" />
    <vehicle id="400244" type="Raleigh" route="V" depart="812" departLane="free" departSpeed="random" />
    <vehicle id="400245" type="Raleigh" route="Xl" depart="814" departLane="free" departSpeed="random" />
    <vehicle id="400246" type="Raleigh" route="V" depart="824" departLane="free" departSpeed="random" />
    <vehicle id="400247" type="Raleigh" route="V" depart="827" departLane="free" departSpeed="random" />
    <vehicle id="400248" type="Raleigh" route="Xl" depart="830" departLane="free" departSpeed="random" />
    <vehicle id="400249" type="Raleigh" route="V" depart="834" departLane="free" departSpeed="random" />
    <vehicle id="400250" type="Raleigh" route="Xl" depart="836" departLane="free" departSpeed="random" />
    <vehicle id="400251" type="Raleigh" route="XXX" depart="837" departLane="free" departSpeed="random" />
    <vehicle id="400252" type="Raleigh" route="Vlll" depart="838" departLane="free" departSpeed="random" />
    <vehicle id="400253" type="Raleigh" route="V" depart="840" departLane="free" departSpeed="random" />
    <vehicle id="400254" type="Raleigh" route="Vlll" depart="840" departLane="free" departSpeed="random" />
    <vehicle id="400255" type="Raleigh" route="Vlll" depart="844" departLane="free" departSpeed="random" />
    <vehicle id="400256" type="Raleigh" route="XXll" depart="845" departLane="free" departSpeed="random" />
    <vehicle id="400257" type="Raleigh" route="Xll" depart="848" departLane="free" departSpeed="random" />
    <vehicle id="400258" type="Raleigh" route="Vlll" depart="853" departLane="free" departSpeed="random" />
    <vehicle id="400259" type="Raleigh" route="Vlll" depart="854" departLane="free" departSpeed="random" />
    <vehicle id="400260" type="Raleigh" route="lV" depart="855" departLane="free" departSpeed="random" />
    <vehicle id="400261" type="Raleigh" route="V" depart="856" departLane="free" departSpeed="random" />
    <vehicle id="400262" type="Raleigh" route="Vlll" depart="864" departLane="free" departSpeed="random" />
    <vehicle id="400263" type="Raleigh" route="Vlll" depart="872" departLane="free" departSpeed="random" />