<routes>
        
            <vType id="Raleigh" accel="0.8" decel="1.5" sigma="0.5" length="1.6" maxSpeed="5.8" color="255,255,0" guiShape="bicycle" vClass="bicycle" emissionClass="zero"/>  
        
            <route id="l" edges="a_3 3_c"/>
            <route id="ll" edges="a_3 3_d"/>
            <route id="lll" edges="a_3 3_6 6_e"/>
            <route id="lV" edges="a_3 3_6 6_f"/>
            <route id="V" edges="a_3 3_6 6_b"/>

            <route id="Vl" edges="b_6 6_f"/>
            <route id="Vll" edges="b_6 6_e"/>
            <route id="Vlll" edges="b_6 6_3 3_a"/>
            <route id="lX" edges="b_6 6_3 3_d"/> 
            <route id="X" edges="b_6 6_3 3_c"/>
            
            
            <route id="Xl" edges="d_3 3_c"/>
            <route id="Xll" edges="d_3 3_a "/>
            <route id="Xlll" edges="d_3 3_6 6_b"/>
            <route id="XlV" edges="d_3 3_6 6_f"/> 
            <route id="XV" edges="d_3 3_6 6_e"/>
            
            <route id="XVl" edges="c_3 3_a"/>
            <route id="XVll" edges="c_3 3_d"/>
            <route id="XVlll" edges="c_3 3_6 6_f"/>
            <route id="XlX" edges="c_3 3_6 6_e"/> 
            <route id="XX" edges="c_3 3_6 6_b"/>
            
            <route id="XXl" edges="f_6 6_b"/>
            <route id="XXll" edges="f_6 6_e"/>
            <route id="XXlll" edges="f_6 6_3 3_d"/>
            <route id="XXlV" edges="f_6 6_3 3_c"/> 
            <route id="XXV" edges="f_6 6_3 3_a"/>
            
            <route id="XXVl"  edges="e_6 6_b"/>
            <route id="XXVll" edges="e_6 6_f"/>
            <route id="XXVlll" edges="e_6 6_3 3_d"/>
            <route id="XXlX" edges="e_6 6_3 3_c"/> 
            <route id="XXX" edges="e_6 6_3 3_a"/>	
                        
        
    <vehicle id="400000" type="Raleigh" route="XXVll" depart="0" departLane="free" departSpeed="random" />
    <vehicle id="400001" type="Raleigh" route="Vlll" depart="1" departLane="free" departSpeed="random" />
    <vehicle id="400002" type="Raleigh" route="V" depart="2" departLane="free" departSpeed="random" />
    <vehicle id="400003" type="Raleigh" route="V" depart="3" departLane="free" departSpeed="random" />
    <vehicle id="400004" type="Raleigh" route="lll" depart="4" departLane="free" departSpeed="random" />
    <vehicle id="400005" type="Raleigh" route="XXll" depart="5" departLane="free" departSpeed="random" />
    <vehicle id="400006" type="Raleigh" route="XXVll" depart="6" departLane="free" departSpeed="random" />
    <vehicle id="400007" type="Raleigh" route="XVll" depart="8" departLane="free" departSpeed="random" />
    <vehicle id="400008" type="Raleigh" route="X" depart="9" departLane="free" departSpeed="random" />
    <vehicle id="400009" type="Raleigh" route="V" depart="10" departLane="free" departSpeed="random" />
    <vehicle id="400010" type="Raleigh" route="l" depart="12" departLane="free" departSpeed="random" />
    <vehicle id="400011" type="Raleigh" route="XlV" depart="13" departLane="free" departSpeed="random" />
    <vehicle id="400012" type="Raleigh" route="Vlll" depart="15" departLane="free" departSpeed="random" />
    <vehicle id="400013" type="Raleigh" route="XXVl" depart="15" departLane="free" departSpeed="random" />
    <vehicle id="400014" type="Raleigh" route="XXVll" depart="16" departLane="free" departSpeed="random" />
    <vehicle id="400015" type="Raleigh" route="V" depart="18" departLane="free" departSpeed="random" />
    <vehicle id="400016" type="Raleigh" route="V" depart="22" departLane="free" departSpeed="random" />
    <vehicle id="400017" type="Raleigh" route="V" depart="23" departLane="free" departSpeed="random" />
    <vehicle id="400018" type="Raleigh" route="Vll" depart="23" departLane="free" departSpeed="random" />
    <vehicle id="400019" type="Raleigh" route="Vlll" depart="24" departLane="free" departSpeed="random" />
    <vehicle id="400020" type="Raleigh" route="l" depart="27" departLane="free" departSpeed="random" />
    <vehicle id="400021" type="Raleigh" route="Xl" depart="29" departLane="free" departSpeed="random" />
    <vehicle id="400022" type="Raleigh" route="XXVll" depart="29" departLane="free" departSpeed="random" />
    <vehicle id="400023" type="Raleigh" route="Vl" depart="32" departLane="free" departSpeed="random" />
    <vehicle id="400024" type="Raleigh" route="XXlll" depart="33" departLane="free" departSpeed="random" />
    <vehicle id="400025" type="Raleigh" route="l" depart="34" departLane="free" departSpeed="random" />
    <vehicle id="400026" type="Raleigh" route="XXll" depart="38" departLane="free" departSpeed="random" />
    <vehicle id="400027" type="Raleigh" route="Xlll" depart="42" departLane="free" departSpeed="random" />
    <vehicle id="400028" type="Raleigh" route="V" depart="45" departLane="free" departSpeed="random" />
    <vehicle id="400029" type="Raleigh" route="l" depart="47" departLane="free" departSpeed="random" />
    <vehicle id="400030" type="Raleigh" route="Vlll" depart="47" departLane="free" departSpeed="random" />
    <vehicle id="400031" type="Raleigh" route="V" depart="48" departLane="free" departSpeed="random" />
    <vehicle id="400032" type="Raleigh" route="V" depart="49" departLane="free" departSpeed="random" />
    <vehicle id="400033" type="Raleigh" route="Vlll" depart="50" departLane="free" departSpeed="random" />
    <vehicle id="400034" type="Raleigh" route="lV" depart="58" departLane="free" departSpeed="random" />
    <vehicle id="400035" type="Raleigh" route="XXVll" depart="59" departLane="free" departSpeed="random" />
    <vehicle id="400036" type="Raleigh" route="lX" depart="62" departLane="free" departSpeed="random" />
    <vehicle id="400037" type="Raleigh" route="Vlll" depart="64" departLane="free" departSpeed="random" />
    <vehicle id="400038" type="Raleigh" route="XXVl" depart="64" departLane="free" departSpeed="random" />
    <vehicle id="400039" type="Raleigh" route="X" depart="65" departLane="free" departSpeed="random" />
    <vehicle id="400040" type="Raleigh" route="XXVll" depart="65" departLane="free" departSpeed="random" />
    <vehicle id="400041" type="Raleigh" route="lll" depart="66" departLane="free" departSpeed="random" />
    <vehicle id="400042" type="Raleigh" route="Vlll" depart="66" departLane="free" departSpeed="random" />
    <vehicle id="400043" type="Raleigh" route="XXVll" depart="66" departLane="free" departSpeed="random" />
    <vehicle id="400044" type="Raleigh" route="V" depart="67" departLane="free" departSpeed="random" />
    <vehicle id="400045" type="Raleigh" route="Vl" depart="70" departLane="free" departSpeed="random" />
    <vehicle id="400046" type="Raleigh" route="XXVll" depart="73" departLane="free" departSpeed="random" />
    <vehicle id="400047" type="Raleigh" route="XVll" depart="76" departLane="free" departSpeed="random" />
    <vehicle id="400048" type="Raleigh" route="V" depart="77" departLane="free" departSpeed="random" />
    <vehicle id="400049" type="Raleigh" route="Vlll" depart="77" departLane="free" departSpeed="random" />
    <vehicle id="400050" type="Raleigh" route="X" depart="77" departLane="free" departSpeed="random" />
    <vehicle id="400051" type="Raleigh" route="V" depart="82" departLane="free" departSpeed="random" />
    <vehicle id="400052" type="Raleigh" route="XXll" depart="83" departLane="free" departSpeed="random" />
    <vehicle id="400053" type="Raleigh" route="l" depart="85" departLane="free" departSpeed="random" />
    <vehicle id="400054" type="Raleigh" route="Vlll" depart="85" departLane="free" departSpeed="random" />
    <vehicle id="400055" type="Raleigh" route="l" depart="90" departLane="free" departSpeed="random" />
    <vehicle id="400056" type="Raleigh" route="Vlll" depart="97" departLane="free" departSpeed="random" />
    <vehicle id="400057" type="Raleigh" route="V" depart="108" departLane="free" departSpeed="random" />
    <vehicle id="400058" type="Raleigh" route="Vl" depart="109" departLane="free" departSpeed="random" />
    <vehicle id="400059" type="Raleigh" route="Vlll" depart="109" departLane="free" departSpeed="random" />
    <vehicle id="400060" type="Raleigh" route="l" depart="110" departLane="free" departSpeed="random" />
    <vehicle id="400061" type="Raleigh" route="Vlll" depart="110" departLane="free" departSpeed="random" />
    <vehicle id="400062" type="Raleigh" route="Xl" depart="110" departLane="free" departSpeed="random" />
    <vehicle id="400063" type="Raleigh" route="Vlll" depart="111" departLane="free" departSpeed="random" />
    <vehicle id="400064" type="Raleigh" route="XXll" depart="113" departLane="free" departSpeed="random" />
    <vehicle id="400065" type="Raleigh" route="Vlll" depart="114" departLane="free" departSpeed="random" />
    <vehicle id="400066" type="Raleigh" route="Vlll" depart="117" departLane="free" departSpeed="random" />
    <vehicle id="400067" type="Raleigh" route="lX" depart="117" departLane="free" departSpeed="random" />
    <vehicle id="400068" type="Raleigh" route="XXlV" depart="117" departLane="free" departSpeed="random" />
    <vehicle id="400069" type="Raleigh" route="XXVll" depart="120" departLane="free" departSpeed="random" />
    <vehicle id="400070" type="Raleigh" route="lll" depart="123" departLane="free" departSpeed="random" />
    <vehicle id="400071" type="Raleigh" route="Vlll" depart="125" departLane="free" departSpeed="random" />
    <vehicle id="400072" type="Raleigh" route="V" depart="130" departLane="free" departSpeed="random" />
    <vehicle id="400073" type="Raleigh" route="Vlll" depart="131" departLane="free" departSpeed="random" />
    <vehicle id="400074" type="Raleigh" route="XXl" depart="132" departLane="free" departSpeed="random" />
    <vehicle id="400075" type="Raleigh" route="XXVll" depart="133" departLane="free" departSpeed="random" />
    <vehicle id="400076" type="Raleigh" route="Vlll" depart="135" departLane="free" departSpeed="random" />
    <vehicle id="400077" type="Raleigh" route="Vlll" depart="146" departLane="free" departSpeed="random" />
    <vehicle id="400078" type="Raleigh" route="XXX" depart="146" departLane="free" departSpeed="random" />
    <vehicle id="400079" type="Raleigh" route="V" depart="147" departLane="free" departSpeed="random" />
    <vehicle id="400080" type="Raleigh" route="XXVll" depart="148" departLane="free" departSpeed="random" />
    <vehicle id="400081" type="Raleigh" route="V" depart="149" departLane="free" departSpeed="random" />
    <vehicle id="400082" type="Raleigh" route="XXll" depart="150" departLane="free" departSpeed="random" />
    <vehicle id="400083" type="Raleigh" route="X" depart="151" departLane="free" departSpeed="random" />
    <vehicle id="400084" type="Raleigh" route="Xl" depart="151" departLane="free" departSpeed="random" />
    <vehicle id="400085" type="Raleigh" route="V" depart="154" departLane="free" departSpeed="random" />
    <vehicle id="400086" type="Raleigh" route="V" depart="155" departLane="free" departSpeed="random" />
    <vehicle id="400087" type="Raleigh" route="XXll" depart="158" departLane="free" departSpeed="random" />
    <vehicle id="400088" type="Raleigh" route="Vl" depart="160" departLane="free" departSpeed="random" />
    <vehicle id="400089" type="Raleigh" route="Vll" depart="161" departLane="free" departSpeed="random" />
    <vehicle id="400090" type="Raleigh" route="X" depart="165" departLane="free" departSpeed="random" />
    <vehicle id="400091" type="Raleigh" route="XXll" depart="169" departLane="free" departSpeed="random" />
    <vehicle id="400092" type="Raleigh" route="XXll" depart="170" departLane="free" departSpeed="random" />
    <vehicle id="400093" type="Raleigh" route="V" depart="171" departLane="free" departSpeed="random" />
    <vehicle id="400094" type="Raleigh" route="XXVll" depart="171" departLane="free" departSpeed="random" />
    <vehicle id="400095" type="Raleigh" route="XXV" depart="174" departLane="free" departSpeed="random" />
    <vehicle id="400096" type="Raleigh" route="lV" depart="175" departLane="free" departSpeed="random" />
    <vehicle id="400097" type="Raleigh" route="Vlll" depart="178" departLane="free" departSpeed="random" />
    <vehicle id="400098" type="Raleigh" route="X" depart="182" departLane="free" departSpeed="random" />
    <vehicle id="400099" type="Raleigh" route="lX" depart="183" departLane="free" departSpeed="random" />
    <vehicle id="400100" type="Raleigh" route="Vlll" depart="185" departLane="free" departSpeed="random" />
    <vehicle id="400101" type="Raleigh" route="lX" depart="185" departLane="free" departSpeed="random" />
    <vehicle id="400102" type="Raleigh" route="XXl" depart="185" departLane="free" departSpeed="random" />
    <vehicle id="400103" type="Raleigh" route="V" depart="186" departLane="free" departSpeed="random" />
    <vehicle id="400104" type="Raleigh" route="Vll" depart="192" departLane="free" departSpeed="random" />
    <vehicle id="400105" type="Raleigh" route="Xl" depart="192" departLane="free" departSpeed="random" />
    <vehicle id="400106" type="Raleigh" route="XVll" depart="192" departLane="free" departSpeed="random" />
    <vehicle id="400107" type="Raleigh" route="ll" depart="193" departLane="free" departSpeed="random" />
    <vehicle id="400108" type="Raleigh" route="V" depart="194" departLane="free" departSpeed="random" />
    <vehicle id="400109" type="Raleigh" route="Vlll" depart="196" departLane="free" departSpeed="random" />
    <vehicle id="400110" type="Raleigh" route="Vlll" depart="197" departLane="free" departSpeed="random" />
    <vehicle id="400111" type="Raleigh" route="Xl" depart="201" departLane="free" departSpeed="random" />
    <vehicle id="400112" type="Raleigh" route="l" depart="202" departLane="free" departSpeed="random" />
    <vehicle id="400113" type="Raleigh" route="Vlll" depart="202" departLane="free" departSpeed="random" />
    <vehicle id="400114" type="Raleigh" route="XXVll" depart="202" departLane="free" departSpeed="random" />
    <vehicle id="400115" type="Raleigh" route="V" depart="206" departLane="free" departSpeed="random" />
    <vehicle id="400116" type="Raleigh" route="Vlll" depart="206" departLane="free" departSpeed="random" />
    <vehicle id="400117" type="Raleigh" route="Xl" depart="206" departLane="free" departSpeed="random" />
    <vehicle id="400118" type="Raleigh" route="Vlll" depart="207" departLane="free" departSpeed="random" />
    <vehicle id="400119" type="Raleigh" route="V" depart="209" departLane="free" departSpeed="random" />
    <vehicle id="400120" type="Raleigh" route="XXll" depart="210" departLane="free" departSpeed="random" />
    <vehicle id="400121" type="Raleigh" route="V" depart="211" departLane="free" departSpeed="random" />
    <vehicle id="400122" type="Raleigh" route="Vlll" depart="211" departLane="free" departSpeed="random" />
    <vehicle id="400123" type="Raleigh" route="Vll" depart="213" departLane="free" departSpeed="random" />
    <vehicle id="400124" type="Raleigh" route="Vlll" depart="213" departLane="free" departSpeed="random" />
    <vehicle id="400125" type="Raleigh" route="X" depart="214" departLane="free" departSpeed="random" />
    <vehicle id="400126" type="Raleigh" route="XXVll" depart="214" departLane="free" departSpeed="random" />
    <vehicle id="400127" type="Raleigh" route="V" depart="215" departLane="free" departSpeed="random" />
    <vehicle id="400128" type="Raleigh" route="Vlll" depart="216" departLane="free" departSpeed="random" />
    <vehicle id="400129" type="Raleigh" route="lX" depart="217" departLane="free" departSpeed="random" />
    <vehicle id="400130" type="Raleigh" route="V" depart="218" departLane="free" departSpeed="random" />
    <vehicle id="400131" type="Raleigh" route="XXVll" depart="218" departLane="free" departSpeed="random" />
    <vehicle id="400132" type="Raleigh" route="Xl" depart="220" departLane="free" departSpeed="random" />
    <vehicle id="400133" type="Raleigh" route="XVll" depart="220" departLane="free" departSpeed="random" />
    <vehicle id="400134" type="Raleigh" route="Vll" depart="221" departLane="free" departSpeed="random" />
    <vehicle id="400135" type="Raleigh" route="V" depart="222" departLane="free" departSpeed="random" />
    <vehicle id="400136" type="Raleigh" route="lX" depart="222" departLane="free" departSpeed="random" />
    <vehicle id="400137" type="Raleigh" route="ll" depart="223" departLane="free" departSpeed="random" />
    <vehicle id="400138" type="Raleigh" route="XVll" depart="224" departLane="free" departSpeed="random" />
    <vehicle id="400139" type="Raleigh" route="X" depart="225" departLane="free" departSpeed="random" />
    <vehicle id="400140" type="Raleigh" route="V" depart="230" departLane="free" departSpeed="random" />
    <vehicle id="400141" type="Raleigh" route="XXll" depart="231" departLane="free" departSpeed="random" />
    <vehicle id="400142" type="Raleigh" route="V" depart="233" departLane="free" departSpeed="random" />
    <vehicle id="400143" type="Raleigh" route="Vlll" depart="233" departLane="free" departSpeed="random" />
    <vehicle id="400144" type="Raleigh" route="XXVll" depart="233" departLane="free" departSpeed="random" />
    <vehicle id="400145" type="Raleigh" route="Vl" depart="234" departLane="free" departSpeed="random" />
    <vehicle id="400146" type="Raleigh" route="V" depart="240" departLane="free" departSpeed="random" />
    <vehicle id="400147" type="Raleigh" route="V" depart="241" departLane="free" departSpeed="random" />
    <vehicle id="400148" type="Raleigh" route="V" depart="242" departLane="free" departSpeed="random" />
    <vehicle id="400149" type="Raleigh" route="XX" depart="242" departLane="free" departSpeed="random" />
    <vehicle id="400150" type="Raleigh" route="V" depart="244" departLane="free" departSpeed="random" />
    <vehicle id="400151" type="Raleigh" route="XXVll" depart="244" departLane="free" departSpeed="random" />
    <vehicle id="400152" type="Raleigh" route="XVll" depart="247" departLane="free" departSpeed="random" />
    <vehicle id="400153" type="Raleigh" route="Vlll" depart="249" departLane="free" departSpeed="random" />
    <vehicle id="400154" type="Raleigh" route="Vlll" depart="252" departLane="free" departSpeed="random" />
    <vehicle id="400155" type="Raleigh" route="lll" depart="259" departLane="free" departSpeed="random" />
    <vehicle id="400156" type="Raleigh" route="V" depart="259" departLane="free" departSpeed="random" />
    <vehicle id="400157" type="Raleigh" route="lX" depart="260" departLane="free" departSpeed="random" />
    <vehicle id="400158" type="Raleigh" route="Vlll" depart="261" departLane="free" departSpeed="random" />
    <vehicle id="400159" type="Raleigh" route="lX" depart="263" departLane="free" departSpeed="random" />
    <vehicle id="400160" type="Raleigh" route="ll" depart="264" departLane="free" departSpeed="random" />
    <vehicle id="400161" type="Raleigh" route="V" depart="265" departLane="free" departSpeed="random" />
    <vehicle id="400162" type="Raleigh" route="Vlll" depart="266" departLane="free" departSpeed="random" />
    <vehicle id="400163" type="Raleigh" route="l" depart="267" departLane="free" departSpeed="random" />
    <vehicle id="400164" type="Raleigh" route="Xl" depart="268" departLane="free" departSpeed="random" />
    <vehicle id="400165" type="Raleigh" route="V" depart="269" departLane="free" departSpeed="random" />
    <vehicle id="400166" type="Raleigh" route="Vlll" depart="272" departLane="free" departSpeed="random" />
    <vehicle id="400167" type="Raleigh" route="Vlll" depart="274" departLane="free" departSpeed="random" />
    <vehicle id="400168" type="Raleigh" route="V" depart="278" departLane="free" departSpeed="random" />
    <vehicle id="400169" type="Raleigh" route="XXVl" depart="278" departLane="free" departSpeed="random" />
    <vehicle id="400170" type="Raleigh" route="Xl" depart="280" departLane="free" departSpeed="random" />
    <vehicle id="400171" type="Raleigh" route="XXll" depart="280" departLane="free" departSpeed="random" />
    <vehicle id="400172" type="Raleigh" route="Vll" depart="281" departLane="free" departSpeed="random" />
    <vehicle id="400173" type="Raleigh" route="l" depart="282" departLane="free" departSpeed="random" />
    <vehicle id="400174" type="Raleigh" route="V" depart="285" departLane="free" departSpeed="random" />
    <vehicle id="400175" type="Raleigh" route="Vlll" depart="285" departLane="free" departSpeed="random" />
    <vehicle id="400176" type="Raleigh" route="XVll" depart="285" departLane="free" departSpeed="random" />
    <vehicle id="400177" type="Raleigh" route="Vlll" depart="286" departLane="free" departSpeed="random" />
    <vehicle id="400178" type="Raleigh" route="Vlll" depart="292" departLane="free" departSpeed="random" />
    <vehicle id="400179" type="Raleigh" route="lV" depart="294" departLane="free" departSpeed="random" />
    <vehicle id="400180" type="Raleigh" route="Vlll" depart="297" departLane="free" departSpeed="random" />
    <vehicle id="400181" type="Raleigh" route="XVll" depart="298" departLane="free" departSpeed="random" />
    <vehicle id="400182" type="Raleigh" route="Vlll" depart="299" departLane="free" departSpeed="random" />
    <vehicle id="400183" type="Raleigh" route="Xl" depart="299" departLane="free" departSpeed="random" />
    <vehicle id="400184" type="Raleigh" route="XXVll" depart="299" departLane="free" departSpeed="random" />
    <vehicle id="400185" type="Raleigh" route="l" depart="300" departLane="free" departSpeed="random" />
    <vehicle id="400186" type="Raleigh" route="Vlll" depart="300" departLane="free" departSpeed="random" />
    <vehicle id="400187" type="Raleigh" route="XXVll" depart="307" departLane="free" departSpeed="random" />
    <vehicle id="400188" type="Raleigh" route="Vll" depart="308" departLane="free" departSpeed="random" />
    <vehicle id="400189" type="Raleigh" route="Vll" depart="310" departLane="free" departSpeed="random" />
    <vehicle id="400190" type="Raleigh" route="lll" depart="312" departLane="free" departSpeed="random" />
    <vehicle id="400191" type="Raleigh" route="X" depart="312" departLane="free" departSpeed="random" />
    <vehicle id="400192" type="Raleigh" route="XVll" depart="312" departLane="free" departSpeed="random" />
    <vehicle id="400193" type="Raleigh" route="XXVll" depart="312" departLane="free" departSpeed="random" />
    <vehicle id="400194" type="Raleigh" route="Xl" depart="314" departLane="free" departSpeed="random" />
    <vehicle id="400195" type="Raleigh" route="Vlll" depart="315" departLane="free" departSpeed="random" />
    <vehicle id="400196" type="Raleigh" route="Vl" depart="317" departLane="free" departSpeed="random" />
    <vehicle id="400197" type="Raleigh" route="X" depart="317" departLane="free" departSpeed="random" />
    <vehicle id="400198" type="Raleigh" route="l" depart="318" departLane="free" departSpeed="random" />
    <vehicle id="400199" type="Raleigh" route="V" depart="321" departLane="free" departSpeed="random" />
    <vehicle id="400200" type="Raleigh" route="Vlll" depart="322" departLane="free" departSpeed="random" />
    <vehicle id="400201" type="Raleigh" route="Vlll" depart="326" departLane="free" departSpeed="random" />
    <vehicle id="400202" type="Raleigh" route="XXl" depart="326" departLane="free" departSpeed="random" />
    <vehicle id="400203" type="Raleigh" route="V" depart="327" departLane="free" departSpeed="random" />
    <vehicle id="400204" type="Raleigh" route="XXVll" depart="329" departLane="free" departSpeed="random" />
    <vehicle id="400205" type="Raleigh" route="l" depart="331" departLane="free" departSpeed="random" />
    <vehicle id="400206" type="Raleigh" route="Vlll" depart="334" departLane="free" departSpeed="random" />
    <vehicle id="400207" type="Raleigh" route="XXll" depart="334" departLane="free" departSpeed="random" />
    <vehicle id="400208" type="Raleigh" route="lll" depart="339" departLane="free" departSpeed="random" />
    <vehicle id="400209" type="Raleigh" route="Vlll" depart="341" departLane="free" departSpeed="random" />
    <vehicle id="400210" type="Raleigh" route="V" depart="343" departLane="free" departSpeed="random" />
    <vehicle id="400211" type="Raleigh" route="XXVl" depart="343" departLane="free" departSpeed="random" />
    <vehicle id="400212" type="Raleigh" route="lll" depart="349" departLane="free" departSpeed="random" />
    <vehicle id="400213" type="Raleigh" route="XXll" depart="349" departLane="free" departSpeed="random" />
    <vehicle id="400214" type="Raleigh" route="lV" depart="351" departLane="free" departSpeed="random" />
    <vehicle id="400215" type="Raleigh" route="Vlll" depart="351" departLane="free" departSpeed="random" />
    <vehicle id="400216" type="Raleigh" route="Vlll" depart="353" departLane="free" departSpeed="random" />
    <vehicle id="400217" type="Raleigh" route="XVll" depart="353" departLane="free" departSpeed="random" />
    <vehicle id="400218" type="Raleigh" route="XXVll" depart="360" departLane="free" departSpeed="random" />
    <vehicle id="400219" type="Raleigh" route="Xl" depart="366" departLane="free" departSpeed="random" />
    <vehicle id="400220" type="Raleigh" route="XXVll" depart="368" departLane="free" departSpeed="random" />
    <vehicle id="400221" type="Raleigh" route="V" depart="373" departLane="free" departSpeed="random" />
    <vehicle id="400222" type="Raleigh" route="V" depart="374" departLane="free" departSpeed="random" />
    <vehicle id="400223" type="Raleigh" route="lll" depart="376" departLane="free" departSpeed="random" />
    <vehicle id="400224" type="Raleigh" route="Vlll" depart="380" departLane="free" departSpeed="random" />
    <vehicle id="400225" type="Raleigh" route="Vlll" depart="381" departLane="free" departSpeed="random" />
    <vehicle id="400226" type="Raleigh" route="Vlll" depart="383" departLane="free" departSpeed="random" />
    <vehicle id="400227" type="Raleigh" route="Vl" depart="386" departLane="free" departSpeed="random" />
    <vehicle id="400228" type="Raleigh" route="XVll" depart="387" departLane="free" departSpeed="random" />
    <vehicle id="400229" type="Raleigh" route="V" depart="389" departLane="free" departSpeed="random" />
    <vehicle id="400230" type="Raleigh" route="Vll" depart="389" departLane="free" departSpeed="random" />
    <vehicle id="400231" type="Raleigh" route="Vlll" depart="389" departLane="free" departSpeed="random" />
    <vehicle id="400232" type="Raleigh" route="XXll" depart="390" departLane="free" departSpeed="random" />
    <vehicle id="400233" type="Raleigh" route="Vl" depart="391" departLane="free" departSpeed="random" />
    <vehicle id="400234" type="Raleigh" route="ll" depart="392" departLane="free" departSpeed="random" />
    <vehicle id="400235" type="Raleigh" route="l" depart="395" departLane="free" departSpeed="random" />
    <vehicle id="400236" type="Raleigh" route="V" depart="395" departLane="free" departSpeed="random" />
    <vehicle id="400237" type="Raleigh" route="XVll" depart="396" departLane="free" departSpeed="random" />
    <vehicle id="400238" type="Raleigh" route="ll" depart="398" departLane="free" departSpeed="random" />
    <vehicle id="400239" type="Raleigh" route="XXll" depart="405" departLane="free" departSpeed="random" />
    <vehicle id="400240" type="Raleigh" route="V" depart="410" departLane="free" departSpeed="random" />
    <vehicle id="400241" type="Raleigh" route="ll" depart="414" departLane="free" departSpeed="random" />
    <vehicle id="400242" type="Raleigh" route="Vlll" depart="414" departLane="free" departSpeed="random" />
    <vehicle id="400243" type="Raleigh" route="V" depart="415" departLane="free" departSpeed="random" />
    <vehicle id="400244" type="Raleigh" route="l" depart="418" departLane="free" departSpeed="random" />
    <vehicle id="400245" type="Raleigh" route="Vlll" depart="418" departLane="free" departSpeed="random" />
    <vehicle id="400246" type="Raleigh" route="XXVll" depart="424" departLane="free" departSpeed="random" />
    <vehicle id="400247" type="Raleigh" route="Xl" depart="426" departLane="free" departSpeed="random" />
    <vehicle id="400248" type="Raleigh" route="Vlll" depart="427" departLane="free" departSpeed="random" />
    <vehicle id="400249" type="Raleigh" route="XVll" depart="427" departLane="free" departSpeed="random" />
    <vehicle id="400250" type="Raleigh" route="Vlll" depart="428" departLane="free" departSpeed="random" />
    <vehicle id="400251" type="Raleigh" route="lX" depart="428" departLane="free" departSpeed="random" />
    <vehicle id="400252" type="Raleigh" route="lll" depart="429" departLane="free" departSpeed="random" />
    <vehicle id="400253" type="Raleigh" route="Xl" depart="429" departLane="free" departSpeed="random" />
    <vehicle id="400254" type="Raleigh" route="V" depart="430" departLane="free" departSpeed="random" />
    <vehicle id="400255" type="Raleigh" route="ll" depart="431" departLane="free" departSpeed="random" />
    <vehicle id="400256" type="Raleigh" route="Xl" depart="432" departLane="free" departSpeed="random" />
    <vehicle id="400257" type="Raleigh" route="Vlll" depart="433" departLane="free" departSpeed="random" />
    <vehicle id="400258" type="Raleigh" route="Vll" depart="434" departLane="free" departSpeed="random" />
    <vehicle id="400259" type="Raleigh" route="Xl" depart="436" departLane="free" departSpeed="random" />
    <vehicle id="400260" type="Raleigh" route="XX" depart="440" departLane="free" departSpeed="random" />
    <vehicle id="400261" type="Raleigh" route="XVll" depart="442" departLane="free" departSpeed="random" />
    <vehicle id="400262" type="Raleigh" route="V" depart="443" departLane="free" departSpeed="random" />
    <vehicle id="400263" type="Raleigh" route="V" depart="445" departLane="free" departSpeed="random" />