<routes>
        
            <vType id="Raleigh" accel="0.8" decel="1.5" sigma="0.5" length="1.6" maxSpeed="5.8" color="255,255,0" guiShape="bicycle" vClass="bicycle" emissionClass="zero"/>  
        
            <route id="l" edges="a_3 3_c"/>
            <route id="ll" edges="a_3 3_d"/>
            <route id="lll" edges="a_3 3_6 6_e"/>
            <route id="lV" edges="a_3 3_6 6_f"/>
            <route id="V" edges="a_3 3_6 6_b"/>

            <route id="Vl" edges="b_6 6_f"/>
            <route id="Vll" edges="b_6 6_e"/>
            <route id="Vlll" edges="b_6 6_3 3_a"/>
            <route id="lX" edges="b_6 6_3 3_d"/> 
            <route id="X" edges="b_6 6_3 3_c"/>
            
            
            <route id="Xl" edges="d_3 3_c"/>
            <route id="Xll" edges="d_3 3_a "/>
            <route id="Xlll" edges="d_3 3_6 6_b"/>
            <route id="XlV" edges="d_3 3_6 6_f"/> 
            <route id="XV" edges="d_3 3_6 6_e"/>
            
            <route id="XVl" edges="c_3 3_a"/>
            <route id="XVll" edges="c_3 3_d"/>
            <route id="XVlll" edges="c_3 3_6 6_f"/>
            <route id="XlX" edges="c_3 3_6 6_e"/> 
            <route id="XX" edges="c_3 3_6 6_b"/>
            
            <route id="XXl" edges="f_6 6_b"/>
            <route id="XXll" edges="f_6 6_e"/>
            <route id="XXlll" edges="f_6 6_3 3_d"/>
            <route id="XXlV" edges="f_6 6_3 3_c"/> 
            <route id="XXV" edges="f_6 6_3 3_a"/>
            
            <route id="XXVl"  edges="e_6 6_b"/>
            <route id="XXVll" edges="e_6 6_f"/>
            <route id="XXVlll" edges="e_6 6_3 3_d"/>
            <route id="XXlX" edges="e_6 6_3 3_c"/> 
            <route id="XXX" edges="e_6 6_3 3_a"/>	
                        
        
    <vehicle id="400000" type="Raleigh" route="Vll" depart="3" departLane="free" departSpeed="random" />
    <vehicle id="400001" type="Raleigh" route="XXll" depart="3" departLane="free" departSpeed="random" />
    <vehicle id="400002" type="Raleigh" route="ll" depart="4" departLane="free" departSpeed="random" />
    <vehicle id="400003" type="Raleigh" route="V" depart="6" departLane="free" departSpeed="random" />
    <vehicle id="400004" type="Raleigh" route="XXll" depart="6" departLane="free" departSpeed="random" />
    <vehicle id="400005" type="Raleigh" route="l" depart="8" departLane="free" departSpeed="random" />
    <vehicle id="400006" type="Raleigh" route="XVll" depart="10" departLane="free" departSpeed="random" />
    <vehicle id="400007" type="Raleigh" route="XVll" depart="12" departLane="free" departSpeed="random" />
    <vehicle id="400008" type="Raleigh" route="Vlll" depart="13" departLane="free" departSpeed="random" />
    <vehicle id="400009" type="Raleigh" route="lX" depart="14" departLane="free" departSpeed="random" />
    <vehicle id="400010" type="Raleigh" route="Xl" depart="17" departLane="free" departSpeed="random" />
    <vehicle id="400011" type="Raleigh" route="Vlll" depart="19" departLane="free" departSpeed="random" />
    <vehicle id="400012" type="Raleigh" route="V" depart="24" departLane="free" departSpeed="random" />
    <vehicle id="400013" type="Raleigh" route="XXVll" depart="25" departLane="free" departSpeed="random" />
    <vehicle id="400014" type="Raleigh" route="Vll" depart="31" departLane="free" departSpeed="random" />
    <vehicle id="400015" type="Raleigh" route="V" depart="33" departLane="free" departSpeed="random" />
    <vehicle id="400016" type="Raleigh" route="Vlll" depart="35" departLane="free" departSpeed="random" />
    <vehicle id="400017" type="Raleigh" route="Xl" depart="35" departLane="free" departSpeed="random" />
    <vehicle id="400018" type="Raleigh" route="Vl" depart="42" departLane="free" departSpeed="random" />
    <vehicle id="400019" type="Raleigh" route="Vlll" depart="42" departLane="free" departSpeed="random" />
    <vehicle id="400020" type="Raleigh" route="Vll" depart="43" departLane="free" departSpeed="random" />
    <vehicle id="400021" type="Raleigh" route="Vll" depart="49" departLane="free" departSpeed="random" />
    <vehicle id="400022" type="Raleigh" route="XXlX" depart="49" departLane="free" departSpeed="random" />
    <vehicle id="400023" type="Raleigh" route="XXVll" depart="57" departLane="free" departSpeed="random" />
    <vehicle id="400024" type="Raleigh" route="XXll" depart="58" departLane="free" departSpeed="random" />
    <vehicle id="400025" type="Raleigh" route="X" depart="63" departLane="free" departSpeed="random" />
    <vehicle id="400026" type="Raleigh" route="XlV" depart="66" departLane="free" departSpeed="random" />
    <vehicle id="400027" type="Raleigh" route="XVll" depart="69" departLane="free" departSpeed="random" />
    <vehicle id="400028" type="Raleigh" route="V" depart="71" departLane="free" departSpeed="random" />
    <vehicle id="400029" type="Raleigh" route="V" depart="79" departLane="free" departSpeed="random" />
    <vehicle id="400030" type="Raleigh" route="lV" depart="80" departLane="free" departSpeed="random" />
    <vehicle id="400031" type="Raleigh" route="XXVll" depart="80" departLane="free" departSpeed="random" />
    <vehicle id="400032" type="Raleigh" route="l" depart="83" departLane="free" departSpeed="random" />
    <vehicle id="400033" type="Raleigh" route="V" depart="85" departLane="free" departSpeed="random" />
    <vehicle id="400034" type="Raleigh" route="XVl" depart="86" departLane="free" departSpeed="random" />
    <vehicle id="400035" type="Raleigh" route="V" depart="89" departLane="free" departSpeed="random" />
    <vehicle id="400036" type="Raleigh" route="Xl" depart="90" departLane="free" departSpeed="random" />
    <vehicle id="400037" type="Raleigh" route="Xl" depart="95" departLane="free" departSpeed="random" />
    <vehicle id="400038" type="Raleigh" route="Xl" depart="96" departLane="free" departSpeed="random" />
    <vehicle id="400039" type="Raleigh" route="lll" depart="99" departLane="free" departSpeed="random" />
    <vehicle id="400040" type="Raleigh" route="Vl" depart="116" departLane="free" departSpeed="random" />
    <vehicle id="400041" type="Raleigh" route="XXll" depart="123" departLane="free" departSpeed="random" />
    <vehicle id="400042" type="Raleigh" route="lll" depart="128" departLane="free" departSpeed="random" />
    <vehicle id="400043" type="Raleigh" route="Vll" depart="128" departLane="free" departSpeed="random" />
    <vehicle id="400044" type="Raleigh" route="lX" depart="131" departLane="free" departSpeed="random" />
    <vehicle id="400045" type="Raleigh" route="Vll" depart="132" departLane="free" departSpeed="random" />
    <vehicle id="400046" type="Raleigh" route="Vlll" depart="132" departLane="free" departSpeed="random" />
    <vehicle id="400047" type="Raleigh" route="Vll" depart="133" departLane="free" departSpeed="random" />
    <vehicle id="400048" type="Raleigh" route="Xl" depart="139" departLane="free" departSpeed="random" />
    <vehicle id="400049" type="Raleigh" route="XVll" depart="143" departLane="free" departSpeed="random" />
    <vehicle id="400050" type="Raleigh" route="XVll" depart="149" departLane="free" departSpeed="random" />
    <vehicle id="400051" type="Raleigh" route="X" depart="153" departLane="free" departSpeed="random" />
    <vehicle id="400052" type="Raleigh" route="V" depart="156" departLane="free" departSpeed="random" />
    <vehicle id="400053" type="Raleigh" route="lX" depart="156" departLane="free" departSpeed="random" />
    <vehicle id="400054" type="Raleigh" route="Xl" depart="156" departLane="free" departSpeed="random" />
    <vehicle id="400055" type="Raleigh" route="Xl" depart="157" departLane="free" departSpeed="random" />
    <vehicle id="400056" type="Raleigh" route="Vlll" depart="160" departLane="free" departSpeed="random" />
    <vehicle id="400057" type="Raleigh" route="Vlll" depart="163" departLane="free" departSpeed="random" />
    <vehicle id="400058" type="Raleigh" route="X" depart="169" departLane="free" departSpeed="random" />
    <vehicle id="400059" type="Raleigh" route="lll" depart="173" departLane="free" departSpeed="random" />
    <vehicle id="400060" type="Raleigh" route="lV" depart="173" departLane="free" departSpeed="random" />
    <vehicle id="400061" type="Raleigh" route="V" depart="174" departLane="free" departSpeed="random" />
    <vehicle id="400062" type="Raleigh" route="V" depart="179" departLane="free" departSpeed="random" />
    <vehicle id="400063" type="Raleigh" route="Vlll" depart="179" departLane="free" departSpeed="random" />
    <vehicle id="400064" type="Raleigh" route="XXll" depart="181" departLane="free" departSpeed="random" />
    <vehicle id="400065" type="Raleigh" route="XXVll" depart="182" departLane="free" departSpeed="random" />
    <vehicle id="400066" type="Raleigh" route="X" depart="188" departLane="free" departSpeed="random" />
    <vehicle id="400067" type="Raleigh" route="XXVl" depart="191" departLane="free" departSpeed="random" />
    <vehicle id="400068" type="Raleigh" route="l" depart="202" departLane="free" departSpeed="random" />
    <vehicle id="400069" type="Raleigh" route="XXVll" depart="202" departLane="free" departSpeed="random" />
    <vehicle id="400070" type="Raleigh" route="V" depart="203" departLane="free" departSpeed="random" />
    <vehicle id="400071" type="Raleigh" route="Vlll" depart="204" departLane="free" departSpeed="random" />
    <vehicle id="400072" type="Raleigh" route="Xl" depart="205" departLane="free" departSpeed="random" />
    <vehicle id="400073" type="Raleigh" route="XXll" depart="210" departLane="free" departSpeed="random" />
    <vehicle id="400074" type="Raleigh" route="V" depart="213" departLane="free" departSpeed="random" />
    <vehicle id="400075" type="Raleigh" route="V" depart="220" departLane="free" departSpeed="random" />
    <vehicle id="400076" type="Raleigh" route="XXVll" depart="222" departLane="free" departSpeed="random" />
    <vehicle id="400077" type="Raleigh" route="V" depart="226" departLane="free" departSpeed="random" />
    <vehicle id="400078" type="Raleigh" route="Vlll" depart="226" departLane="free" departSpeed="random" />
    <vehicle id="400079" type="Raleigh" route="lV" depart="231" departLane="free" departSpeed="random" />
    <vehicle id="400080" type="Raleigh" route="Vl" depart="232" departLane="free" departSpeed="random" />
    <vehicle id="400081" type="Raleigh" route="lX" depart="234" departLane="free" departSpeed="random" />
    <vehicle id="400082" type="Raleigh" route="Vll" depart="236" departLane="free" departSpeed="random" />
    <vehicle id="400083" type="Raleigh" route="XVll" depart="237" departLane="free" departSpeed="random" />
    <vehicle id="400084" type="Raleigh" route="Vlll" depart="239" departLane="free" departSpeed="random" />
    <vehicle id="400085" type="Raleigh" route="Vlll" depart="245" departLane="free" departSpeed="random" />
    <vehicle id="400086" type="Raleigh" route="XXVll" depart="248" departLane="free" departSpeed="random" />
    <vehicle id="400087" type="Raleigh" route="l" depart="249" departLane="free" departSpeed="random" />
    <vehicle id="400088" type="Raleigh" route="Vlll" depart="253" departLane="free" departSpeed="random" />
    <vehicle id="400089" type="Raleigh" route="V" depart="258" departLane="free" departSpeed="random" />
    <vehicle id="400090" type="Raleigh" route="Xl" depart="270" departLane="free" departSpeed="random" />
    <vehicle id="400091" type="Raleigh" route="Vlll" depart="271" departLane="free" departSpeed="random" />
    <vehicle id="400092" type="Raleigh" route="V" depart="272" departLane="free" departSpeed="random" />
    <vehicle id="400093" type="Raleigh" route="Vlll" depart="277" departLane="free" departSpeed="random" />
    <vehicle id="400094" type="Raleigh" route="Vlll" depart="287" departLane="free" departSpeed="random" />
    <vehicle id="400095" type="Raleigh" route="lll" depart="288" departLane="free" departSpeed="random" />
    <vehicle id="400096" type="Raleigh" route="Vlll" depart="295" departLane="free" departSpeed="random" />
    <vehicle id="400097" type="Raleigh" route="V" depart="296" departLane="free" departSpeed="random" />
    <vehicle id="400098" type="Raleigh" route="l" depart="297" departLane="free" departSpeed="random" />
    <vehicle id="400099" type="Raleigh" route="V" depart="300" departLane="free" departSpeed="random" />
    <vehicle id="400100" type="Raleigh" route="V" depart="301" departLane="free" departSpeed="random" />
    <vehicle id="400101" type="Raleigh" route="Vlll" depart="304" departLane="free" departSpeed="random" />
    <vehicle id="400102" type="Raleigh" route="V" depart="305" departLane="free" departSpeed="random" />
    <vehicle id="400103" type="Raleigh" route="Vlll" depart="314" departLane="free" departSpeed="random" />
    <vehicle id="400104" type="Raleigh" route="Xlll" depart="318" departLane="free" departSpeed="random" />
    <vehicle id="400105" type="Raleigh" route="Vlll" depart="325" departLane="free" departSpeed="random" />
    <vehicle id="400106" type="Raleigh" route="XVll" depart="326" departLane="free" departSpeed="random" />
    <vehicle id="400107" type="Raleigh" route="XVll" depart="327" departLane="free" departSpeed="random" />
    <vehicle id="400108" type="Raleigh" route="V" depart="328" departLane="free" departSpeed="random" />
    <vehicle id="400109" type="Raleigh" route="Vlll" depart="330" departLane="free" departSpeed="random" />
    <vehicle id="400110" type="Raleigh" route="Vlll" depart="340" departLane="free" departSpeed="random" />
    <vehicle id="400111" type="Raleigh" route="XVll" depart="349" departLane="free" departSpeed="random" />
    <vehicle id="400112" type="Raleigh" route="XXVl" depart="349" departLane="free" departSpeed="random" />
    <vehicle id="400113" type="Raleigh" route="XVll" depart="350" departLane="free" departSpeed="random" />
    <vehicle id="400114" type="Raleigh" route="V" depart="351" departLane="free" departSpeed="random" />
    <vehicle id="400115" type="Raleigh" route="XXX" depart="353" departLane="free" departSpeed="random" />
    <vehicle id="400116" type="Raleigh" route="lV" depart="356" departLane="free" departSpeed="random" />
    <vehicle id="400117" type="Raleigh" route="Vll" depart="357" departLane="free" departSpeed="random" />
    <vehicle id="400118" type="Raleigh" route="Vlll" depart="358" departLane="free" departSpeed="random" />
    <vehicle id="400119" type="Raleigh" route="lll" depart="371" departLane="free" departSpeed="random" />
    <vehicle id="400120" type="Raleigh" route="lX" depart="371" departLane="free" departSpeed="random" />
    <vehicle id="400121" type="Raleigh" route="XVl" depart="372" departLane="free" departSpeed="random" />
    <vehicle id="400122" type="Raleigh" route="lV" depart="375" departLane="free" departSpeed="random" />
    <vehicle id="400123" type="Raleigh" route="lV" depart="380" departLane="free" departSpeed="random" />
    <vehicle id="400124" type="Raleigh" route="XVll" depart="391" departLane="free" departSpeed="random" />
    <vehicle id="400125" type="Raleigh" route="l" depart="393" departLane="free" departSpeed="random" />
    <vehicle id="400126" type="Raleigh" route="V" depart="396" departLane="free" departSpeed="random" />
    <vehicle id="400127" type="Raleigh" route="Vlll" depart="399" departLane="free" departSpeed="random" />
    <vehicle id="400128" type="Raleigh" route="Vl" depart="400" departLane="free" departSpeed="random" />
    <vehicle id="400129" type="Raleigh" route="V" depart="402" departLane="free" departSpeed="random" />
    <vehicle id="400130" type="Raleigh" route="Vlll" depart="403" departLane="free" departSpeed="random" />
    <vehicle id="400131" type="Raleigh" route="XXll" depart="404" departLane="free" departSpeed="random" />
    <vehicle id="400132" type="Raleigh" route="V" depart="406" departLane="free" departSpeed="random" />
    <vehicle id="400133" type="Raleigh" route="lll" depart="409" departLane="free" departSpeed="random" />
    <vehicle id="400134" type="Raleigh" route="V" depart="413" departLane="free" departSpeed="random" />
    <vehicle id="400135" type="Raleigh" route="Vlll" depart="424" departLane="free" departSpeed="random" />
    <vehicle id="400136" type="Raleigh" route="XXVll" depart="424" departLane="free" departSpeed="random" />
    <vehicle id="400137" type="Raleigh" route="XVll" depart="425" departLane="free" departSpeed="random" />
    <vehicle id="400138" type="Raleigh" route="Xl" depart="426" departLane="free" departSpeed="random" />
    <vehicle id="400139" type="Raleigh" route="V" depart="430" departLane="free" departSpeed="random" />
    <vehicle id="400140" type="Raleigh" route="l" depart="431" departLane="free" departSpeed="random" />
    <vehicle id="400141" type="Raleigh" route="V" depart="431" departLane="free" departSpeed="random" />
    <vehicle id="400142" type="Raleigh" route="Vlll" depart="431" departLane="free" departSpeed="random" />
    <vehicle id="400143" type="Raleigh" route="V" depart="434" departLane="free" departSpeed="random" />
    <vehicle id="400144" type="Raleigh" route="V" depart="435" departLane="free" departSpeed="random" />
    <vehicle id="400145" type="Raleigh" route="V" depart="436" departLane="free" departSpeed="random" />
    <vehicle id="400146" type="Raleigh" route="Vl" depart="439" departLane="free" departSpeed="random" />
    <vehicle id="400147" type="Raleigh" route="Vlll" depart="439" departLane="free" departSpeed="random" />
    <vehicle id="400148" type="Raleigh" route="Xl" depart="441" departLane="free" departSpeed="random" />
    <vehicle id="400149" type="Raleigh" route="Vlll" depart="447" departLane="free" departSpeed="random" />
    <vehicle id="400150" type="Raleigh" route="lll" depart="449" departLane="free" departSpeed="random" />
    <vehicle id="400151" type="Raleigh" route="V" depart="449" departLane="free" departSpeed="random" />
    <vehicle id="400152" type="Raleigh" route="Vlll" depart="457" departLane="free" departSpeed="random" />
    <vehicle id="400153" type="Raleigh" route="V" depart="461" departLane="free" departSpeed="random" />
    <vehicle id="400154" type="Raleigh" route="Vlll" depart="467" departLane="free" departSpeed="random" />
    <vehicle id="400155" type="Raleigh" route="Vlll" depart="468" departLane="free" departSpeed="random" />
    <vehicle id="400156" type="Raleigh" route="Vlll" depart="472" departLane="free" departSpeed="random" />
    <vehicle id="400157" type="Raleigh" route="XX" depart="473" departLane="free" departSpeed="random" />
    <vehicle id="400158" type="Raleigh" route="Vlll" depart="480" departLane="free" departSpeed="random" />
    <vehicle id="400159" type="Raleigh" route="Vlll" depart="481" departLane="free" departSpeed="random" />
    <vehicle id="400160" type="Raleigh" route="XXVll" depart="487" departLane="free" departSpeed="random" />
    <vehicle id="400161" type="Raleigh" route="lV" depart="492" departLane="free" departSpeed="random" />
    <vehicle id="400162" type="Raleigh" route="Xlll" depart="502" departLane="free" departSpeed="random" />
    <vehicle id="400163" type="Raleigh" route="Vl" depart="504" departLane="free" departSpeed="random" />
    <vehicle id="400164" type="Raleigh" route="Vlll" depart="506" departLane="free" departSpeed="random" />
    <vehicle id="400165" type="Raleigh" route="XXVll" depart="506" departLane="free" departSpeed="random" />
    <vehicle id="400166" type="Raleigh" route="Vlll" depart="507" departLane="free" departSpeed="random" />
    <vehicle id="400167" type="Raleigh" route="V" depart="508" departLane="free" departSpeed="random" />
    <vehicle id="400168" type="Raleigh" route="lX" depart="510" departLane="free" departSpeed="random" />
    <vehicle id="400169" type="Raleigh" route="Vlll" depart="515" departLane="free" departSpeed="random" />
    <vehicle id="400170" type="Raleigh" route="Xl" depart="515" departLane="free" departSpeed="random" />
    <vehicle id="400171" type="Raleigh" route="Vlll" depart="521" departLane="free" departSpeed="random" />
    <vehicle id="400172" type="Raleigh" route="XVll" depart="522" departLane="free" departSpeed="random" />
    <vehicle id="400173" type="Raleigh" route="lll" depart="523" departLane="free" departSpeed="random" />
    <vehicle id="400174" type="Raleigh" route="XXl" depart="523" departLane="free" departSpeed="random" />
    <vehicle id="400175" type="Raleigh" route="Vl" depart="527" departLane="free" departSpeed="random" />
    <vehicle id="400176" type="Raleigh" route="Vlll" depart="528" departLane="free" departSpeed="random" />
    <vehicle id="400177" type="Raleigh" route="XXVll" depart="528" departLane="free" departSpeed="random" />
    <vehicle id="400178" type="Raleigh" route="XVl" depart="532" departLane="free" departSpeed="random" />
    <vehicle id="400179" type="Raleigh" route="V" depart="538" departLane="free" departSpeed="random" />
    <vehicle id="400180" type="Raleigh" route="XVll" depart="540" departLane="free" departSpeed="random" />
    <vehicle id="400181" type="Raleigh" route="XXVll" depart="541" departLane="free" departSpeed="random" />
    <vehicle id="400182" type="Raleigh" route="X" depart="544" departLane="free" departSpeed="random" />
    <vehicle id="400183" type="Raleigh" route="V" depart="545" departLane="free" departSpeed="random" />
    <vehicle id="400184" type="Raleigh" route="V" depart="550" departLane="free" departSpeed="random" />
    <vehicle id="400185" type="Raleigh" route="XlX" depart="551" departLane="free" departSpeed="random" />
    <vehicle id="400186" type="Raleigh" route="lX" depart="555" departLane="free" departSpeed="random" />
    <vehicle id="400187" type="Raleigh" route="XVll" depart="555" departLane="free" departSpeed="random" />
    <vehicle id="400188" type="Raleigh" route="V" depart="557" departLane="free" departSpeed="random" />
    <vehicle id="400189" type="Raleigh" route="XVll" depart="557" departLane="free" departSpeed="random" />
    <vehicle id="400190" type="Raleigh" route="Xlll" depart="558" departLane="free" departSpeed="random" />
    <vehicle id="400191" type="Raleigh" route="V" depart="559" departLane="free" departSpeed="random" />
    <vehicle id="400192" type="Raleigh" route="lll" depart="561" departLane="free" departSpeed="random" />
    <vehicle id="400193" type="Raleigh" route="Vlll" depart="563" departLane="free" departSpeed="random" />
    <vehicle id="400194" type="Raleigh" route="lV" depart="565" departLane="free" departSpeed="random" />
    <vehicle id="400195" type="Raleigh" route="XXll" depart="565" departLane="free" departSpeed="random" />
    <vehicle id="400196" type="Raleigh" route="Vll" depart="566" departLane="free" departSpeed="random" />
    <vehicle id="400197" type="Raleigh" route="V" depart="570" departLane="free" departSpeed="random" />
    <vehicle id="400198" type="Raleigh" route="XXVl" depart="570" departLane="free" departSpeed="random" />
    <vehicle id="400199" type="Raleigh" route="XXVll" depart="571" departLane="free" departSpeed="random" />
    <vehicle id="400200" type="Raleigh" route="V" depart="576" departLane="free" departSpeed="random" />
    <vehicle id="400201" type="Raleigh" route="XXll" depart="580" departLane="free" departSpeed="random" />
    <vehicle id="400202" type="Raleigh" route="V" depart="583" departLane="free" departSpeed="random" />
    <vehicle id="400203" type="Raleigh" route="Vlll" depart="588" departLane="free" departSpeed="random" />
    <vehicle id="400204" type="Raleigh" route="XXll" depart="589" departLane="free" departSpeed="random" />
    <vehicle id="400205" type="Raleigh" route="l" depart="590" departLane="free" departSpeed="random" />
    <vehicle id="400206" type="Raleigh" route="XXX" depart="595" departLane="free" departSpeed="random" />
    <vehicle id="400207" type="Raleigh" route="X" depart="601" departLane="free" departSpeed="random" />
    <vehicle id="400208" type="Raleigh" route="Vl" depart="607" departLane="free" departSpeed="random" />
    <vehicle id="400209" type="Raleigh" route="V" depart="609" departLane="free" departSpeed="random" />
    <vehicle id="400210" type="Raleigh" route="V" depart="620" departLane="free" departSpeed="random" />
    <vehicle id="400211" type="Raleigh" route="Vlll" depart="621" departLane="free" departSpeed="random" />
    <vehicle id="400212" type="Raleigh" route="V" depart="622" departLane="free" departSpeed="random" />
    <vehicle id="400213" type="Raleigh" route="Vlll" depart="624" departLane="free" departSpeed="random" />
    <vehicle id="400214" type="Raleigh" route="Vlll" depart="625" departLane="free" departSpeed="random" />
    <vehicle id="400215" type="Raleigh" route="V" depart="632" departLane="free" departSpeed="random" />
    <vehicle id="400216" type="Raleigh" route="V" depart="640" departLane="free" departSpeed="random" />
    <vehicle id="400217" type="Raleigh" route="X" depart="640" departLane="free" departSpeed="random" />
    <vehicle id="400218" type="Raleigh" route="V" depart="643" departLane="free" departSpeed="random" />
    <vehicle id="400219" type="Raleigh" route="V" depart="644" departLane="free" departSpeed="random" />
    <vehicle id="400220" type="Raleigh" route="XXVll" depart="644" departLane="free" departSpeed="random" />
    <vehicle id="400221" type="Raleigh" route="XXll" depart="645" departLane="free" departSpeed="random" />
    <vehicle id="400222" type="Raleigh" route="XVll" depart="649" departLane="free" departSpeed="random" />
    <vehicle id="400223" type="Raleigh" route="Xll" depart="650" departLane="free" departSpeed="random" />
    <vehicle id="400224" type="Raleigh" route="V" depart="652" departLane="free" departSpeed="random" />
    <vehicle id="400225" type="Raleigh" route="Vll" depart="656" departLane="free" departSpeed="random" />
    <vehicle id="400226" type="Raleigh" route="Vlll" depart="656" departLane="free" departSpeed="random" />
    <vehicle id="400227" type="Raleigh" route="XVll" depart="658" departLane="free" departSpeed="random" />
    <vehicle id="400228" type="Raleigh" route="Vlll" depart="661" departLane="free" departSpeed="random" />
    <vehicle id="400229" type="Raleigh" route="V" depart="663" departLane="free" departSpeed="random" />
    <vehicle id="400230" type="Raleigh" route="Vl" depart="669" departLane="free" departSpeed="random" />
    <vehicle id="400231" type="Raleigh" route="V" depart="671" departLane="free" departSpeed="random" />
    <vehicle id="400232" type="Raleigh" route="Vlll" depart="673" departLane="free" departSpeed="random" />
    <vehicle id="400233" type="Raleigh" route="XVll" depart="677" departLane="free" departSpeed="random" />
    <vehicle id="400234" type="Raleigh" route="Vlll" depart="690" departLane="free" departSpeed="random" />
    <vehicle id="400235" type="Raleigh" route="Xl" depart="695" departLane="free" departSpeed="random" />
    <vehicle id="400236" type="Raleigh" route="Xl" depart="699" departLane="free" departSpeed="random" />
    <vehicle id="400237" type="Raleigh" route="V" depart="701" departLane="free" departSpeed="random" />
    <vehicle id="400238" type="Raleigh" route="V" depart="703" departLane="free" departSpeed="random" />
    <vehicle id="400239" type="Raleigh" route="V" depart="704" departLane="free" departSpeed="random" />
    <vehicle id="400240" type="Raleigh" route="Vl" depart="708" departLane="free" departSpeed="random" />
    <vehicle id="400241" type="Raleigh" route="V" depart="714" departLane="free" departSpeed="random" />
    <vehicle id="400242" type="Raleigh" route="XVll" depart="717" departLane="free" departSpeed="random" />
    <vehicle id="400243" type="Raleigh" route="XVll" depart="719" departLane="free" departSpeed="random" />
    <vehicle id="400244" type="Raleigh" route="V" depart="721" departLane="free" departSpeed="random" />
    <vehicle id="400245" type="Raleigh" route="V" depart="725" departLane="free" departSpeed="random" />
    <vehicle id="400246" type="Raleigh" route="Vlll" depart="725" departLane="free" departSpeed="random" />
    <vehicle id="400247" type="Raleigh" route="Vlll" depart="728" departLane="free" departSpeed="random" />
    <vehicle id="400248" type="Raleigh" route="Vlll" depart="729" departLane="free" departSpeed="random" />
    <vehicle id="400249" type="Raleigh" route="Xl" depart="729" departLane="free" departSpeed="random" />
    <vehicle id="400250" type="Raleigh" route="XXVl" depart="732" departLane="free" departSpeed="random" />
    <vehicle id="400251" type="Raleigh" route="XXVl" depart="734" departLane="free" departSpeed="random" />
    <vehicle id="400252" type="Raleigh" route="Vlll" depart="735" departLane="free" departSpeed="random" />
    <vehicle id="400253" type="Raleigh" route="V" depart="736" departLane="free" departSpeed="random" />
    <vehicle id="400254" type="Raleigh" route="XVll" depart="746" departLane="free" departSpeed="random" />
    <vehicle id="400255" type="Raleigh" route="XXVll" depart="746" departLane="free" departSpeed="random" />
    <vehicle id="400256" type="Raleigh" route="Vll" depart="748" departLane="free" departSpeed="random" />
    <vehicle id="400257" type="Raleigh" route="XX" depart="752" departLane="free" departSpeed="random" />
    <vehicle id="400258" type="Raleigh" route="X" depart="754" departLane="free" departSpeed="random" />
    <vehicle id="400259" type="Raleigh" route="lll" depart="760" departLane="free" departSpeed="random" />
    <vehicle id="400260" type="Raleigh" route="V" depart="761" departLane="free" departSpeed="random" />
    <vehicle id="400261" type="Raleigh" route="V" depart="763" departLane="free" departSpeed="random" />
    <vehicle id="400262" type="Raleigh" route="Xl" depart="766" departLane="free" departSpeed="random" />
    <vehicle id="400263" type="Raleigh" route="Xl" depart="767" departLane="free" departSpeed="random" />
    <vehicle id="400264" type="Raleigh" route="lll" depart="769" departLane="free" departSpeed="random" />