<routes>

            <vType id="Berliner" accel="0.5" decel="1.0" sigma="0.5" length="0.5" maxSpeed="1.5" minGap="1.0" color="255,165,0" guiShape="pedestrian"  width ="0.5" vClass="pedestrian"/>  

            <route id="a" edges="a_3 3_6"/>
            <route id="c" edges="6_3 3_a"/>
            <route id="e" edges="c_3 3_d"/>
            <route id="g" edges="d_3 3_c"/>
            <route id="i" edges="3_6 6_b"/>
            <route id="k" edges="b_6 6_3"/>
            <route id="m" edges="e_6 6_f"/>
            <route id="o" edges="f_6 6_e"/>
                        
        
    <person id="800000" depart="0" departPos="random">
        <walk route="a"/>
    </person>
    <person id="800001" depart="0" departPos="random">
        <walk route="c"/>
    </person>
    <person id="800002" depart="1" departPos="random">
        <walk route="m"/>
    </person>
    <person id="800003" depart="8" departPos="random">
        <walk route="a"/>
    </person>
    <person id="800004" depart="9" departPos="random">
        <walk route="i"/>
    </person>
    <person id="800005" depart="14" departPos="random">
        <walk route="i"/>
    </person>
    <person id="800006" depart="26" departPos="random">
        <walk route="e"/>
    </person>
    <person id="800007" depart="26" departPos="random">
        <walk route="g"/>
    </person>
    <person id="800008" depart="27" departPos="random">
        <walk route="k"/>
    </person>
    <person id="800009" depart="41" departPos="random">
        <walk route="c"/>
    </person>
    <person id="800010" depart="43" departPos="random">
        <walk route="a"/>
    </person>
    <person id="800011" depart="43" departPos="random">
        <walk route="c"/>
    </person>
    <person id="800012" depart="44" departPos="random">
        <walk route="o"/>
    </person>
    <person id="800013" depart="45" departPos="random">
        <walk route="o"/>
    </person>
    <person id="800014" depart="46" departPos="random">
        <walk route="m"/>
    </person>
    <person id="800015" depart="49" departPos="random">
        <walk route="k"/>
    </person>
    <person id="800016" depart="54" departPos="random">
        <walk route="c"/>
    </person>
    <person id="800017" depart="56" departPos="random">
        <walk route="i"/>
    </person>
    <person id="800018" depart="63" departPos="random">
        <walk route="k"/>
    </person>
    <person id="800019" depart="65" departPos="random">
        <walk route="i"/>
    </person>
    <person id="800020" depart="65" departPos="random">
        <walk route="k"/>
    </person>
    <person id="800021" depart="66" departPos="random">
        <walk route="i"/>
    </person>
    <person id="800022" depart="68" departPos="random">
        <walk route="m"/>
    </person>
    <person id="800023" depart="70" departPos="random">
        <walk route="g"/>
    </person>
    <person id="800024" depart="72" departPos="random">
        <walk route="a"/>
    </person>
    <person id="800025" depart="77" departPos="random">
        <walk route="k"/>
    </person>
    <person id="800026" depart="79" departPos="random">
        <walk route="c"/>
    </person>
    <person id="800027" depart="81" departPos="random">
        <walk route="c"/>
    </person>
    <person id="800028" depart="84" departPos="random">
        <walk route="g"/>
    </person>
    <person id="800029" depart="86" departPos="random">
        <walk route="i"/>
    </person>
    <person id="800030" depart="87" departPos="random">
        <walk route="i"/>
    </person>
    <person id="800031" depart="90" departPos="random">
        <walk route="m"/>
    </person>
    <person id="800032" depart="93" departPos="random">
        <walk route="a"/>
    </person>
    <person id="800033" depart="93" departPos="random">
        <walk route="c"/>
    </person>
    <person id="800034" depart="94" departPos="random">
        <walk route="c"/>
    </person>
    <person id="800035" depart="98" departPos="random">
        <walk route="i"/>
    </person>
    <person id="800036" depart="100" departPos="random">
        <walk route="o"/>
    </person>
    <person id="800037" depart="104" departPos="random">
        <walk route="i"/>
    </person>
    <person id="800038" depart="104" departPos="random">
        <walk route="o"/>
    </person>
    <person id="800039" depart="107" departPos="random">
        <walk route="a"/>
    </person>
    <person id="800040" depart="107" departPos="random">
        <walk route="i"/>
    </person>
    <person id="800041" depart="109" departPos="random">
        <walk route="i"/>
    </person>
    <person id="800042" depart="112" departPos="random">
        <walk route="c"/>
    </person>
    <person id="800043" depart="115" departPos="random">
        <walk route="i"/>
    </person>
    <person id="800044" depart="115" departPos="random">
        <walk route="k"/>
    </person>
    <person id="800045" depart="120" departPos="random">
        <walk route="o"/>
    </person>
    <person id="800046" depart="125" departPos="random">
        <walk route="a"/>
    </person>
    <person id="800047" depart="125" departPos="random">
        <walk route="c"/>
    </person>
    <person id="800048" depart="126" departPos="random">
        <walk route="a"/>
    </person>
    <person id="800049" depart="128" departPos="random">
        <walk route="c"/>
    </person>
    <person id="800050" depart="129" departPos="random">
        <walk route="c"/>
    </person>
    <person id="800051" depart="132" departPos="random">
        <walk route="i"/>
    </person>
    <person id="800052" depart="135" departPos="random">
        <walk route="i"/>
    </person>
    <person id="800053" depart="135" departPos="random">
        <walk route="k"/>
    </person>
    <person id="800054" depart="137" departPos="random">
        <walk route="k"/>
    </person>
    <person id="800055" depart="145" departPos="random">
        <walk route="c"/>
    </person>
    <person id="800056" depart="147" departPos="random">
        <walk route="i"/>
    </person>
    <person id="800057" depart="148" departPos="random">
        <walk route="m"/>
    </person>
    <person id="800058" depart="151" departPos="random">
        <walk route="a"/>
    </person>
    <person id="800059" depart="151" departPos="random">
        <walk route="o"/>
    </person>
    <person id="800060" depart="154" departPos="random">
        <walk route="k"/>
    </person>
    <person id="800061" depart="158" departPos="random">
        <walk route="a"/>
    </person>
    <person id="800062" depart="160" departPos="random">
        <walk route="g"/>
    </person>
    <person id="800063" depart="161" departPos="random">
        <walk route="k"/>
    </person>
    <person id="800064" depart="162" departPos="random">
        <walk route="c"/>
    </person>
    <person id="800065" depart="163" departPos="random">
        <walk route="c"/>
    </person>
    <person id="800066" depart="170" departPos="random">
        <walk route="g"/>
    </person>
    <person id="800067" depart="170" departPos="random">
        <walk route="i"/>
    </person>
    <person id="800068" depart="174" departPos="random">
        <walk route="a"/>
    </person>
    <person id="800069" depart="175" departPos="random">
        <walk route="k"/>
    </person>
    <person id="800070" depart="179" departPos="random">
        <walk route="i"/>
    </person>
    <person id="800071" depart="180" departPos="random">
        <walk route="c"/>
    </person>
    <person id="800072" depart="183" departPos="random">
        <walk route="c"/>
    </person>
    <person id="800073" depart="184" departPos="random">
        <walk route="k"/>
    </person>
    <person id="800074" depart="185" departPos="random">
        <walk route="e"/>
    </person>
    <person id="800075" depart="189" departPos="random">
        <walk route="c"/>
    </person>
    <person id="800076" depart="193" departPos="random">
        <walk route="e"/>
    </person>
    <person id="800077" depart="195" departPos="random">
        <walk route="a"/>
    </person>
    <person id="800078" depart="201" departPos="random">
        <walk route="m"/>
    </person>
    <person id="800079" depart="202" departPos="random">
        <walk route="a"/>
    </person>
    <person id="800080" depart="202" departPos="random">
        <walk route="k"/>
    </person>
    <person id="800081" depart="205" departPos="random">
        <walk route="k"/>
    </person>
    <person id="800082" depart="206" departPos="random">
        <walk route="c"/>
    </person>
    <person id="800083" depart="209" departPos="random">
        <walk route="a"/>
    </person>
    <person id="800084" depart="210" departPos="random">
        <walk route="i"/>
    </person>
    <person id="800085" depart="211" departPos="random">
        <walk route="i"/>
    </person>
    <person id="800086" depart="212" departPos="random">
        <walk route="m"/>
    </person>
    <person id="800087" depart="214" departPos="random">
        <walk route="i"/>
    </person>
    <person id="800088" depart="215" departPos="random">
        <walk route="i"/>
    </person>
    <person id="800089" depart="215" departPos="random">
        <walk route="k"/>
    </person>
    <person id="800090" depart="216" departPos="random">
        <walk route="a"/>
    </person>
    <person id="800091" depart="218" departPos="random">
        <walk route="g"/>
    </person>
    <person id="800092" depart="218" departPos="random">
        <walk route="i"/>
    </person>
    <person id="800093" depart="219" departPos="random">
        <walk route="a"/>
    </person>
    <person id="800094" depart="220" departPos="random">
        <walk route="k"/>
    </person>
    <person id="800095" depart="222" departPos="random">
        <walk route="c"/>
    </person>
    <person id="800096" depart="223" departPos="random">
        <walk route="a"/>
    </person>
    <person id="800097" depart="225" departPos="random">
        <walk route="a"/>
    </person>
    <person id="800098" depart="232" departPos="random">
        <walk route="c"/>
    </person>
    <person id="800099" depart="232" departPos="random">
        <walk route="i"/>
    </person>
    <person id="800100" depart="233" departPos="random">
        <walk route="i"/>
    </person>
    <person id="800101" depart="239" departPos="random">
        <walk route="i"/>
    </person>
    <person id="800102" depart="240" departPos="random">
        <walk route="c"/>
    </person>
    <person id="800103" depart="240" departPos="random">
        <walk route="m"/>
    </person>
    <person id="800104" depart="242" departPos="random">
        <walk route="c"/>
    </person>
    <person id="800105" depart="242" departPos="random">
        <walk route="o"/>
    </person>
    <person id="800106" depart="245" departPos="random">
        <walk route="c"/>
    </person>
    <person id="800107" depart="250" departPos="random">
        <walk route="o"/>
    </person>
    <person id="800108" depart="251" departPos="random">
        <walk route="c"/>
    </person>
    <person id="800109" depart="253" departPos="random">
        <walk route="k"/>
    </person>
    <person id="800110" depart="255" departPos="random">
        <walk route="m"/>
    </person>
    <person id="800111" depart="257" departPos="random">
        <walk route="m"/>
    </person>
    <person id="800112" depart="258" departPos="random">
        <walk route="a"/>
    </person>
    <person id="800113" depart="267" departPos="random">
        <walk route="k"/>
    </person>
    <person id="800114" depart="271" departPos="random">
        <walk route="k"/>
    </person>
    <person id="800115" depart="279" departPos="random">
        <walk route="k"/>
    </person>
    <person id="800116" depart="282" departPos="random">
        <walk route="c"/>
    </person>
    <person id="800117" depart="284" departPos="random">
        <walk route="i"/>
    </person>
    <person id="800118" depart="288" departPos="random">
        <walk route="a"/>
    </person>
    <person id="800119" depart="288" departPos="random">
        <walk route="e"/>
    </person>
    <person id="800120" depart="290" departPos="random">
        <walk route="c"/>
    </person>
    <person id="800121" depart="294" departPos="random">
        <walk route="c"/>
    </person>
    <person id="800122" depart="296" departPos="random">
        <walk route="a"/>
    </person>
    <person id="800123" depart="297" departPos="random">
        <walk route="c"/>
    </person>
    <person id="800124" depart="297" departPos="random">
        <walk route="i"/>
    </person>
    <person id="800125" depart="302" departPos="random">
        <walk route="c"/>
    </person>
    <person id="800126" depart="302" departPos="random">
        <walk route="k"/>
    </person>
    <person id="800127" depart="308" departPos="random">
        <walk route="c"/>
    </person>
    <person id="800128" depart="310" departPos="random">
        <walk route="i"/>
    </person>
    <person id="800129" depart="312" departPos="random">
        <walk route="a"/>
    </person>
    <person id="800130" depart="312" departPos="random">
        <walk route="c"/>
    </person>
    <person id="800131" depart="313" departPos="random">
        <walk route="i"/>
    </person>
    <person id="800132" depart="314" departPos="random">
        <walk route="e"/>
    </person>
    <person id="800133" depart="315" departPos="random">
        <walk route="a"/>
    </person>
    <person id="800134" depart="318" departPos="random">
        <walk route="k"/>
    </person>
    <person id="800135" depart="321" departPos="random">
        <walk route="i"/>
    </person>
    <person id="800136" depart="325" departPos="random">
        <walk route="c"/>
    </person>
    <person id="800137" depart="326" departPos="random">
        <walk route="c"/>
    </person>
    <person id="800138" depart="328" departPos="random">
        <walk route="a"/>
    </person>
    <person id="800139" depart="330" departPos="random">
        <walk route="c"/>
    </person>
    <person id="800140" depart="330" departPos="random">
        <walk route="g"/>
    </person>
    <person id="800141" depart="330" departPos="random">
        <walk route="i"/>
    </person>
    <person id="800142" depart="331" departPos="random">
        <walk route="g"/>
    </person>
    <person id="800143" depart="332" departPos="random">
        <walk route="a"/>
    </person>
    <person id="800144" depart="333" departPos="random">
        <walk route="k"/>
    </person>
    <person id="800145" depart="340" departPos="random">
        <walk route="m"/>
    </person>
    <person id="800146" depart="348" departPos="random">
        <walk route="k"/>
    </person>
    <person id="800147" depart="352" departPos="random">
        <walk route="i"/>
    </person>
    <person id="800148" depart="357" departPos="random">
        <walk route="m"/>
    </person>
    <person id="800149" depart="358" departPos="random">
        <walk route="i"/>
    </person>
    <person id="800150" depart="358" departPos="random">
        <walk route="k"/>
    </person>
    <person id="800151" depart="359" departPos="random">
        <walk route="i"/>
    </person>
    <person id="800152" depart="363" departPos="random">
        <walk route="k"/>
    </person>
    <person id="800153" depart="367" departPos="random">
        <walk route="k"/>
    </person>
    <person id="800154" depart="368" departPos="random">
        <walk route="c"/>
    </person>
    <person id="800155" depart="369" departPos="random">
        <walk route="c"/>
    </person>
    <person id="800156" depart="370" departPos="random">
        <walk route="c"/>
    </person>
    <person id="800157" depart="370" departPos="random">
        <walk route="m"/>
    </person>
    <person id="800158" depart="371" departPos="random">
        <walk route="a"/>
    </person>
    <person id="800159" depart="373" departPos="random">
        <walk route="o"/>
    </person>
    <person id="800160" depart="377" departPos="random">
        <walk route="c"/>
    </person>
    <person id="800161" depart="379" departPos="random">
        <walk route="c"/>
    </person>
    <person id="800162" depart="380" departPos="random">
        <walk route="m"/>
    </person>
    <person id="800163" depart="383" departPos="random">
        <walk route="i"/>
    </person>
    <person id="800164" depart="386" departPos="random">
        <walk route="c"/>
    </person>
    <person id="800165" depart="390" departPos="random">
        <walk route="g"/>
    </person>
    <person id="800166" depart="391" departPos="random">
        <walk route="m"/>
    </person>
    <person id="800167" depart="396" departPos="random">
        <walk route="o"/>
    </person>
    <person id="800168" depart="398" departPos="random">
        <walk route="a"/>
    </person>
    <person id="800169" depart="398" departPos="random">
        <walk route="i"/>
    </person>
    <person id="800170" depart="401" departPos="random">
        <walk route="k"/>
    </person>
    <person id="800171" depart="402" departPos="random">
        <walk route="a"/>
    </person>
    <person id="800172" depart="403" departPos="random">
        <walk route="k"/>
    </person>
    <person id="800173" depart="403" departPos="random">
        <walk route="m"/>
    </person>
    <person id="800174" depart="404" departPos="random">
        <walk route="i"/>
    </person>
    <person id="800175" depart="407" departPos="random">
        <walk route="c"/>
    </person>
    <person id="800176" depart="407" departPos="random">
        <walk route="o"/>
    </person>
    <person id="800177" depart="410" departPos="random">
        <walk route="c"/>
    </person>
    <person id="800178" depart="410" departPos="random">
        <walk route="k"/>
    </person>
    <person id="800179" depart="411" departPos="random">
        <walk route="k"/>
    </person>
    <person id="800180" depart="413" departPos="random">
        <walk route="c"/>
    </person>
    <person id="800181" depart="414" departPos="random">
        <walk route="a"/>
    </person>
    <person id="800182" depart="416" departPos="random">
        <walk route="c"/>
    </person>
    <person id="800183" depart="416" departPos="random">
        <walk route="i"/>
    </person>
    <person id="800184" depart="417" departPos="random">
        <walk route="c"/>
    </person>
    <person id="800185" depart="420" departPos="random">
        <walk route="c"/>
    </person>
    <person id="800186" depart="422" departPos="random">
        <walk route="e"/>
    </person>
    <person id="800187" depart="434" departPos="random">
        <walk route="i"/>
    </person>
    <person id="800188" depart="435" departPos="random">
        <walk route="a"/>
    </person>
    <person id="800189" depart="435" departPos="random">
        <walk route="c"/>
    </person>
    <person id="800190" depart="436" departPos="random">
        <walk route="m"/>
    </person>
    <person id="800191" depart="437" departPos="random">
        <walk route="i"/>
    </person>
    <person id="800192" depart="440" departPos="random">
        <walk route="i"/>
    </person>
    <person id="800193" depart="441" departPos="random">
        <walk route="k"/>
    </person>
    <person id="800194" depart="443" departPos="random">
        <walk route="a"/>
    </person>
    <person id="800195" depart="443" departPos="random">
        <walk route="k"/>
    </person>
    <person id="800196" depart="444" departPos="random">
        <walk route="m"/>
    </person>
    <person id="800197" depart="445" departPos="random">
        <walk route="c"/>
    </person>
    <person id="800198" depart="452" departPos="random">
        <walk route="i"/>
    </person>
    <person id="800199" depart="455" departPos="random">
        <walk route="c"/>
    </person>
    <person id="800200" depart="455" departPos="random">
        <walk route="i"/>
    </person>
    <person id="800201" depart="456" departPos="random">
        <walk route="i"/>
    </person>
    <person id="800202" depart="457" departPos="random">
        <walk route="k"/>
    </person>
    <person id="800203" depart="458" departPos="random">
        <walk route="i"/>
    </person>
    <person id="800204" depart="459" departPos="random">
        <walk route="c"/>
    </person>
    <person id="800205" depart="459" departPos="random">
        <walk route="m"/>
    </person>
    <person id="800206" depart="460" departPos="random">
        <walk route="o"/>
    </person>
    <person id="800207" depart="461" departPos="random">
        <walk route="k"/>
    </person>
    <person id="800208" depart="464" departPos="random">
        <walk route="k"/>
    </person>
    <person id="800209" depart="465" departPos="random">
        <walk route="k"/>
    </person>
    <person id="800210" depart="465" departPos="random">
        <walk route="m"/>
    </person>
    <person id="800211" depart="468" departPos="random">
        <walk route="o"/>
    </person>
    <person id="800212" depart="472" departPos="random">
        <walk route="g"/>
    </person>
    <person id="800213" depart="473" departPos="random">
        <walk route="c"/>
    </person>
    <person id="800214" depart="478" departPos="random">
        <walk route="i"/>
    </person>
    <person id="800215" depart="484" departPos="random">
        <walk route="e"/>
    </person>
    <person id="800216" depart="485" departPos="random">
        <walk route="i"/>
    </person>
    <person id="800217" depart="486" departPos="random">
        <walk route="i"/>
    </person>
    <person id="800218" depart="489" departPos="random">
        <walk route="c"/>
    </person>
    <person id="800219" depart="493" departPos="random">
        <walk route="a"/>
    </person>
    <person id="800220" depart="496" departPos="random">
        <walk route="c"/>
    </person>
    <person id="800221" depart="497" departPos="random">
        <walk route="c"/>
    </person>
    <person id="800222" depart="500" departPos="random">
        <walk route="k"/>
    </person>
    <person id="800223" depart="502" departPos="random">
        <walk route="i"/>
    </person>
    <person id="800224" depart="504" departPos="random">
        <walk route="g"/>
    </person>
    <person id="800225" depart="505" departPos="random">
        <walk route="k"/>
    </person>
    <person id="800226" depart="511" departPos="random">
        <walk route="i"/>
    </person>
    <person id="800227" depart="513" departPos="random">
        <walk route="a"/>
    </person>
    <person id="800228" depart="513" departPos="random">
        <walk route="k"/>
    </person>
    <person id="800229" depart="513" departPos="random">
        <walk route="m"/>
    </person>
    <person id="800230" depart="514" departPos="random">
        <walk route="c"/>
    </person>
    <person id="800231" depart="515" departPos="random">
        <walk route="i"/>
    </person>
    <person id="800232" depart="516" departPos="random">
        <walk route="a"/>
    </person>
    <person id="800233" depart="516" departPos="random">
        <walk route="m"/>
    </person>
    <person id="800234" depart="517" departPos="random">
        <walk route="a"/>
    </person>
    <person id="800235" depart="518" departPos="random">
        <walk route="a"/>
    </person>
    <person id="800236" depart="518" departPos="random">
        <walk route="m"/>
    </person>
    <person id="800237" depart="519" departPos="random">
        <walk route="c"/>
    </person>
    <person id="800238" depart="519" departPos="random">
        <walk route="g"/>
    </person>
    <person id="800239" depart="522" departPos="random">
        <walk route="k"/>
    </person>
    <person id="800240" depart="523" departPos="random">
        <walk route="i"/>
    </person>
    <person id="800241" depart="526" departPos="random">
        <walk route="c"/>
    </person>
    <person id="800242" depart="528" departPos="random">
        <walk route="k"/>
    </person>
    <person id="800243" depart="530" departPos="random">
        <walk route="a"/>
    </person>
    <person id="800244" depart="530" departPos="random">
        <walk route="o"/>
    </person>
    <person id="800245" depart="532" departPos="random">
        <walk route="i"/>
    </person>
    <person id="800246" depart="539" departPos="random">
        <walk route="a"/>
    </person>
    <person id="800247" depart="540" departPos="random">
        <walk route="k"/>
    </person>
    <person id="800248" depart="543" departPos="random">
        <walk route="a"/>
    </person>
    <person id="800249" depart="544" departPos="random">
        <walk route="a"/>
    </person>
    <person id="800250" depart="549" departPos="random">
        <walk route="c"/>
    </person>
    <person id="800251" depart="551" departPos="random">
        <walk route="i"/>
    </person>
    <person id="800252" depart="554" departPos="random">
        <walk route="c"/>
    </person>
    <person id="800253" depart="554" departPos="random">
        <walk route="i"/>
    </person>
    <person id="800254" depart="555" departPos="random">
        <walk route="c"/>
    </person>
    <person id="800255" depart="561" departPos="random">
        <walk route="a"/>
    </person>
    <person id="800256" depart="562" departPos="random">
        <walk route="c"/>
    </person>
    <person id="800257" depart="562" departPos="random">
        <walk route="m"/>
    </person>
    <person id="800258" depart="563" departPos="random">
        <walk route="k"/>
    </person>
    <person id="800259" depart="567" departPos="random">
        <walk route="g"/>
    </person>
    <person id="800260" depart="568" departPos="random">
        <walk route="i"/>
    </person>
    <person id="800261" depart="573" departPos="random">
        <walk route="i"/>
    </person>
    <person id="800262" depart="577" departPos="random">
        <walk route="a"/>
    </person>
    <person id="800263" depart="579" departPos="random">
        <walk route="c"/>
    </person>
    <person id="800264" depart="579" departPos="random">
        <walk route="i"/>
    </person>
    <person id="800265" depart="580" departPos="random">
        <walk route="c"/>
    </person>
    <person id="800266" depart="581" departPos="random">
        <walk route="a"/>
    </person>
    <person id="800267" depart="582" departPos="random">
        <walk route="k"/>
    </person>
    <person id="800268" depart="583" departPos="random">
        <walk route="c"/>
    </person>
    <person id="800269" depart="584" departPos="random">
        <walk route="o"/>
    </person>
    <person id="800270" depart="587" departPos="random">
        <walk route="m"/>
    </person>
    <person id="800271" depart="588" departPos="random">
        <walk route="c"/>
    </person>
    <person id="800272" depart="593" departPos="random">
        <walk route="k"/>
    </person>
    <person id="800273" depart="597" departPos="random">
        <walk route="i"/>
    </person>
    <person id="800274" depart="598" departPos="random">
        <walk route="a"/>
    </person>
    <person id="800275" depart="600" departPos="random">
        <walk route="i"/>
    </person>
    <person id="800276" depart="602" departPos="random">
        <walk route="i"/>
    </person>
    <person id="800277" depart="602" departPos="random">
        <walk route="k"/>
    </person>
    <person id="800278" depart="603" departPos="random">
        <walk route="k"/>
    </person>
    <person id="800279" depart="606" departPos="random">
        <walk route="a"/>
    </person>
    <person id="800280" depart="611" departPos="random">
        <walk route="a"/>
    </person>
    <person id="800281" depart="613" departPos="random">
        <walk route="c"/>
    </person>
    <person id="800282" depart="617" departPos="random">
        <walk route="c"/>
    </person>
    <person id="800283" depart="629" departPos="random">
        <walk route="c"/>
    </person>
    <person id="800284" depart="630" departPos="random">
        <walk route="k"/>
    </person>
    <person id="800285" depart="630" departPos="random">
        <walk route="o"/>
    </person>
    <person id="800286" depart="631" departPos="random">
        <walk route="i"/>
    </person>
    <person id="800287" depart="632" departPos="random">
        <walk route="k"/>
    </person>
    <person id="800288" depart="637" departPos="random">
        <walk route="c"/>
    </person>
    <person id="800289" depart="638" departPos="random">
        <walk route="c"/>
    </person>
    <person id="800290" depart="638" departPos="random">
        <walk route="m"/>
    </person>
    <person id="800291" depart="643" departPos="random">
        <walk route="i"/>
    </person>
    <person id="800292" depart="650" departPos="random">
        <walk route="k"/>
    </person>
    <person id="800293" depart="652" departPos="random">
        <walk route="a"/>
    </person>
    <person id="800294" depart="652" departPos="random">
        <walk route="i"/>
    </person>
    <person id="800295" depart="654" departPos="random">
        <walk route="c"/>
    </person>
    <person id="800296" depart="654" departPos="random">
        <walk route="o"/>
    </person>
    <person id="800297" depart="659" departPos="random">
        <walk route="g"/>
    </person>
    <person id="800298" depart="664" departPos="random">
        <walk route="a"/>
    </person>
    <person id="800299" depart="664" departPos="random">
        <walk route="i"/>
    </person>
    <person id="800300" depart="673" departPos="random">
        <walk route="i"/>
    </person>
    <person id="800301" depart="673" departPos="random">
        <walk route="k"/>
    </person>
    <person id="800302" depart="675" departPos="random">
        <walk route="i"/>
    </person>
    <person id="800303" depart="683" departPos="random">