<routes>

            <vType id="Berliner" accel="0.5" decel="1.0" sigma="0.5" length="0.5" maxSpeed="1.5" minGap="1.0" color="255,165,0" guiShape="pedestrian"  width ="0.5" vClass="pedestrian"/>  

            <route id="a" edges="a_3 3_6"/>
            <route id="c" edges="6_3 3_a"/>
            <route id="e" edges="c_3 3_d"/>
            <route id="g" edges="d_3 3_c"/>
            <route id="i" edges="3_6 6_b"/>
            <route id="k" edges="b_6 6_3"/>
            <route id="m" edges="e_6 6_f"/>
            <route id="o" edges="f_6 6_e"/>
                        
        
    <person id="800000" depart="0" departPos="random">
        <walk route="i"/>
    </person>
    <person id="800001" depart="1" departPos="random">
        <walk route="c"/>
    </person>
    <person id="800002" depart="1" departPos="random">
        <walk route="k"/>
    </person>
    <person id="800003" depart="2" departPos="random">
        <walk route="k"/>
    </person>
    <person id="800004" depart="3" departPos="random">
        <walk route="a"/>
    </person>
    <person id="800005" depart="6" departPos="random">
        <walk route="c"/>
    </person>
    <person id="800006" depart="6" departPos="random">
        <walk route="i"/>
    </person>
    <person id="800007" depart="7" departPos="random">
        <walk route="a"/>
    </person>
    <person id="800008" depart="8" departPos="random">
        <walk route="a"/>
    </person>
    <person id="800009" depart="8" departPos="random">
        <walk route="c"/>
    </person>
    <person id="800010" depart="9" departPos="random">
        <walk route="i"/>
    </person>
    <person id="800011" depart="10" departPos="random">
        <walk route="k"/>
    </person>
    <person id="800012" depart="12" departPos="random">
        <walk route="a"/>
    </person>
    <person id="800013" depart="14" departPos="random">
        <walk route="a"/>
    </person>
    <person id="800014" depart="14" departPos="random">
        <walk route="c"/>
    </person>
    <person id="800015" depart="16" departPos="random">
        <walk route="a"/>
    </person>
    <person id="800016" depart="16" departPos="random">
        <walk route="k"/>
    </person>
    <person id="800017" depart="19" departPos="random">
        <walk route="c"/>
    </person>
    <person id="800018" depart="20" departPos="random">
        <walk route="c"/>
    </person>
    <person id="800019" depart="22" departPos="random">
        <walk route="a"/>
    </person>
    <person id="800020" depart="22" departPos="random">
        <walk route="i"/>
    </person>
    <person id="800021" depart="26" departPos="random">
        <walk route="i"/>
    </person>
    <person id="800022" depart="27" departPos="random">
        <walk route="a"/>
    </person>
    <person id="800023" depart="28" departPos="random">
        <walk route="c"/>
    </person>
    <person id="800024" depart="28" departPos="random">
        <walk route="i"/>
    </person>
    <person id="800025" depart="29" departPos="random">
        <walk route="a"/>
    </person>
    <person id="800026" depart="29" departPos="random">
        <walk route="k"/>
    </person>
    <person id="800027" depart="31" departPos="random">
        <walk route="e"/>
    </person>
    <person id="800028" depart="39" departPos="random">
        <walk route="k"/>
    </person>
    <person id="800029" depart="40" departPos="random">
        <walk route="g"/>
    </person>
    <person id="800030" depart="40" departPos="random">
        <walk route="o"/>
    </person>
    <person id="800031" depart="41" departPos="random">
        <walk route="g"/>
    </person>
    <person id="800032" depart="42" departPos="random">
        <walk route="k"/>
    </person>
    <person id="800033" depart="43" departPos="random">
        <walk route="c"/>
    </person>
    <person id="800034" depart="46" departPos="random">
        <walk route="c"/>
    </person>
    <person id="800035" depart="51" departPos="random">
        <walk route="c"/>
    </person>
    <person id="800036" depart="54" departPos="random">
        <walk route="a"/>
    </person>
    <person id="800037" depart="56" departPos="random">
        <walk route="c"/>
    </person>
    <person id="800038" depart="58" departPos="random">
        <walk route="k"/>
    </person>
    <person id="800039" depart="63" departPos="random">
        <walk route="c"/>
    </person>
    <person id="800040" depart="65" departPos="random">
        <walk route="a"/>
    </person>
    <person id="800041" depart="65" departPos="random">
        <walk route="c"/>
    </person>
    <person id="800042" depart="66" departPos="random">
        <walk route="k"/>
    </person>
    <person id="800043" depart="68" departPos="random">
        <walk route="c"/>
    </person>
    <person id="800044" depart="68" departPos="random">
        <walk route="i"/>
    </person>
    <person id="800045" depart="69" departPos="random">
        <walk route="a"/>
    </person>
    <person id="800046" depart="69" departPos="random">
        <walk route="i"/>
    </person>
    <person id="800047" depart="70" departPos="random">
        <walk route="i"/>
    </person>
    <person id="800048" depart="71" departPos="random">
        <walk route="k"/>
    </person>
    <person id="800049" depart="72" departPos="random">
        <walk route="k"/>
    </person>
    <person id="800050" depart="73" departPos="random">
        <walk route="i"/>
    </person>
    <person id="800051" depart="76" departPos="random">
        <walk route="a"/>
    </person>
    <person id="800052" depart="77" departPos="random">
        <walk route="a"/>
    </person>
    <person id="800053" depart="77" departPos="random">
        <walk route="m"/>
    </person>
    <person id="800054" depart="78" departPos="random">
        <walk route="c"/>
    </person>
    <person id="800055" depart="79" departPos="random">
        <walk route="c"/>
    </person>
    <person id="800056" depart="80" departPos="random">
        <walk route="c"/>
    </person>
    <person id="800057" depart="80" departPos="random">
        <walk route="i"/>
    </person>
    <person id="800058" depart="80" departPos="random">
        <walk route="m"/>
    </person>
    <person id="800059" depart="81" departPos="random">
        <walk route="i"/>
    </person>
    <person id="800060" depart="83" departPos="random">
        <walk route="i"/>
    </person>
    <person id="800061" depart="85" departPos="random">
        <walk route="a"/>
    </person>
    <person id="800062" depart="88" departPos="random">
        <walk route="k"/>
    </person>
    <person id="800063" depart="90" departPos="random">
        <walk route="a"/>
    </person>
    <person id="800064" depart="91" departPos="random">
        <walk route="c"/>
    </person>
    <person id="800065" depart="91" departPos="random">
        <walk route="k"/>
    </person>
    <person id="800066" depart="92" departPos="random">
        <walk route="e"/>
    </person>
    <person id="800067" depart="98" departPos="random">
        <walk route="a"/>
    </person>
    <person id="800068" depart="99" departPos="random">
        <walk route="c"/>
    </person>
    <person id="800069" depart="101" departPos="random">
        <walk route="o"/>
    </person>
    <person id="800070" depart="102" departPos="random">
        <walk route="a"/>
    </person>
    <person id="800071" depart="102" departPos="random">
        <walk route="k"/>
    </person>
    <person id="800072" depart="104" departPos="random">
        <walk route="k"/>
    </person>
    <person id="800073" depart="104" departPos="random">
        <walk route="m"/>
    </person>
    <person id="800074" depart="106" departPos="random">
        <walk route="c"/>
    </person>
    <person id="800075" depart="107" departPos="random">
        <walk route="a"/>
    </person>
    <person id="800076" depart="108" departPos="random">
        <walk route="e"/>
    </person>
    <person id="800077" depart="110" departPos="random">
        <walk route="k"/>
    </person>
    <person id="800078" depart="111" departPos="random">
        <walk route="i"/>
    </person>
    <person id="800079" depart="113" departPos="random">
        <walk route="a"/>
    </person>
    <person id="800080" depart="114" departPos="random">
        <walk route="c"/>
    </person>
    <person id="800081" depart="115" departPos="random">
        <walk route="k"/>
    </person>
    <person id="800082" depart="116" departPos="random">
        <walk route="i"/>
    </person>
    <person id="800083" depart="119" departPos="random">
        <walk route="c"/>
    </person>
    <person id="800084" depart="121" departPos="random">
        <walk route="a"/>
    </person>
    <person id="800085" depart="123" departPos="random">
        <walk route="c"/>
    </person>
    <person id="800086" depart="124" departPos="random">
        <walk route="g"/>
    </person>
    <person id="800087" depart="124" departPos="random">
        <walk route="o"/>
    </person>
    <person id="800088" depart="125" departPos="random">
        <walk route="c"/>
    </person>
    <person id="800089" depart="126" departPos="random">
        <walk route="i"/>
    </person>
    <person id="800090" depart="126" departPos="random">
        <walk route="m"/>
    </person>
    <person id="800091" depart="127" departPos="random">
        <walk route="i"/>
    </person>
    <person id="800092" depart="129" departPos="random">
        <walk route="a"/>
    </person>
    <person id="800093" depart="135" departPos="random">
        <walk route="a"/>
    </person>
    <person id="800094" depart="135" departPos="random">
        <walk route="k"/>
    </person>
    <person id="800095" depart="136" departPos="random">
        <walk route="a"/>
    </person>
    <person id="800096" depart="136" departPos="random">
        <walk route="m"/>
    </person>
    <person id="800097" depart="138" departPos="random">
        <walk route="a"/>
    </person>
    <person id="800098" depart="138" departPos="random">
        <walk route="k"/>
    </person>
    <person id="800099" depart="141" departPos="random">
        <walk route="a"/>
    </person>
    <person id="800100" depart="141" departPos="random">
        <walk route="i"/>
    </person>
    <person id="800101" depart="142" departPos="random">
        <walk route="i"/>
    </person>
    <person id="800102" depart="144" departPos="random">
        <walk route="a"/>
    </person>
    <person id="800103" depart="145" departPos="random">
        <walk route="i"/>
    </person>
    <person id="800104" depart="146" departPos="random">
        <walk route="a"/>
    </person>
    <person id="800105" depart="146" departPos="random">
        <walk route="c"/>
    </person>
    <person id="800106" depart="147" departPos="random">
        <walk route="g"/>
    </person>
    <person id="800107" depart="147" departPos="random">
        <walk route="k"/>
    </person>
    <person id="800108" depart="148" departPos="random">
        <walk route="k"/>
    </person>
    <person id="800109" depart="149" departPos="random">
        <walk route="e"/>
    </person>
    <person id="800110" depart="152" departPos="random">
        <walk route="a"/>
    </person>
    <person id="800111" depart="152" departPos="random">
        <walk route="c"/>
    </person>
    <person id="800112" depart="152" departPos="random">
        <walk route="i"/>
    </person>
    <person id="800113" depart="153" departPos="random">
        <walk route="a"/>
    </person>
    <person id="800114" depart="155" departPos="random">
        <walk route="i"/>
    </person>
    <person id="800115" depart="158" departPos="random">
        <walk route="m"/>
    </person>
    <person id="800116" depart="162" departPos="random">
        <walk route="i"/>
    </person>
    <person id="800117" depart="166" departPos="random">
        <walk route="o"/>
    </person>
    <person id="800118" depart="169" departPos="random">
        <walk route="m"/>
    </person>
    <person id="800119" depart="174" departPos="random">
        <walk route="c"/>
    </person>
    <person id="800120" depart="175" departPos="random">
        <walk route="a"/>
    </person>
    <person id="800121" depart="183" departPos="random">
        <walk route="a"/>
    </person>
    <person id="800122" depart="185" departPos="random">
        <walk route="i"/>
    </person>
    <person id="800123" depart="186" departPos="random">
        <walk route="g"/>
    </person>
    <person id="800124" depart="189" departPos="random">
        <walk route="c"/>
    </person>
    <person id="800125" depart="197" departPos="random">
        <walk route="i"/>
    </person>
    <person id="800126" depart="198" departPos="random">
        <walk route="c"/>
    </person>
    <person id="800127" depart="199" departPos="random">
        <walk route="a"/>
    </person>
    <person id="800128" depart="200" departPos="random">
        <walk route="k"/>
    </person>
    <person id="800129" depart="201" departPos="random">
        <walk route="a"/>
    </person>
    <person id="800130" depart="202" departPos="random">
        <walk route="i"/>
    </person>
    <person id="800131" depart="204" departPos="random">
        <walk route="a"/>
    </person>
    <person id="800132" depart="204" departPos="random">
        <walk route="k"/>
    </person>
    <person id="800133" depart="206" departPos="random">
        <walk route="c"/>
    </person>
    <person id="800134" depart="206" departPos="random">
        <walk route="k"/>
    </person>
    <person id="800135" depart="208" departPos="random">
        <walk route="a"/>
    </person>
    <person id="800136" depart="210" departPos="random">
        <walk route="a"/>
    </person>
    <person id="800137" depart="211" departPos="random">
        <walk route="e"/>
    </person>
    <person id="800138" depart="212" departPos="random">
        <walk route="i"/>
    </person>
    <person id="800139" depart="214" departPos="random">
        <walk route="e"/>
    </person>
    <person id="800140" depart="214" departPos="random">
        <walk route="m"/>
    </person>
    <person id="800141" depart="214" departPos="random">
        <walk route="o"/>
    </person>
    <person id="800142" depart="215" departPos="random">
        <walk route="i"/>
    </person>
    <person id="800143" depart="215" departPos="random">
        <walk route="k"/>
    </person>
    <person id="800144" depart="220" departPos="random">
        <walk route="k"/>
    </person>
    <person id="800145" depart="224" departPos="random">
        <walk route="e"/>
    </person>
    <person id="800146" depart="225" departPos="random">
        <walk route="a"/>
    </person>
    <person id="800147" depart="227" departPos="random">
        <walk route="i"/>
    </person>
    <person id="800148" depart="228" departPos="random">
        <walk route="m"/>
    </person>
    <person id="800149" depart="232" departPos="random">
        <walk route="c"/>
    </person>
    <person id="800150" depart="243" departPos="random">
        <walk route="c"/>
    </person>
    <person id="800151" depart="245" departPos="random">
        <walk route="i"/>
    </person>
    <person id="800152" depart="247" departPos="random">
        <walk route="k"/>
    </person>
    <person id="800153" depart="249" departPos="random">
        <walk route="c"/>
    </person>
    <person id="800154" depart="250" departPos="random">
        <walk route="c"/>
    </person>
    <person id="800155" depart="256" departPos="random">
        <walk route="a"/>
    </person>
    <person id="800156" depart="256" departPos="random">
        <walk route="c"/>
    </person>
    <person id="800157" depart="256" departPos="random">
        <walk route="g"/>
    </person>
    <person id="800158" depart="263" departPos="random">
        <walk route="a"/>
    </person>
    <person id="800159" depart="266" departPos="random">
        <walk route="i"/>
    </person>
    <person id="800160" depart="272" departPos="random">
        <walk route="a"/>
    </person>
    <person id="800161" depart="281" departPos="random">
        <walk route="i"/>
    </person>
    <person id="800162" depart="281" departPos="random">
        <walk route="m"/>
    </person>
    <person id="800163" depart="282" departPos="random">
        <walk route="o"/>
    </person>
    <person id="800164" depart="283" departPos="random">
        <walk route="k"/>
    </person>
    <person id="800165" depart="290" departPos="random">
        <walk route="a"/>
    </person>
    <person id="800166" depart="290" departPos="random">
        <walk route="k"/>
    </person>
    <person id="800167" depart="291" departPos="random">
        <walk route="a"/>
    </person>
    <person id="800168" depart="293" departPos="random">
        <walk route="a"/>
    </person>
    <person id="800169" depart="294" departPos="random">
        <walk route="i"/>
    </person>
    <person id="800170" depart="296" departPos="random">
        <walk route="o"/>
    </person>
    <person id="800171" depart="297" departPos="random">
        <walk route="c"/>
    </person>
    <person id="800172" depart="299" departPos="random">
        <walk route="g"/>
    </person>
    <person id="800173" depart="300" departPos="random">
        <walk route="g"/>
    </person>
    <person id="800174" depart="304" departPos="random">
        <walk route="k"/>
    </person>
    <person id="800175" depart="305" departPos="random">
        <walk route="c"/>
    </person>
    <person id="800176" depart="305" departPos="random">
        <walk route="i"/>
    </person>
    <person id="800177" depart="305" departPos="random">
        <walk route="k"/>
    </person>
    <person id="800178" depart="306" departPos="random">
        <walk route="c"/>
    </person>
    <person id="800179" depart="307" departPos="random">
        <walk route="i"/>
    </person>
    <person id="800180" depart="313" departPos="random">
        <walk route="a"/>
    </person>
    <person id="800181" depart="313" departPos="random">
        <walk route="k"/>
    </person>
    <person id="800182" depart="318" departPos="random">
        <walk route="c"/>
    </person>
    <person id="800183" depart="318" departPos="random">
        <walk route="k"/>
    </person>
    <person id="800184" depart="322" departPos="random">
        <walk route="i"/>
    </person>
    <person id="800185" depart="323" departPos="random">
        <walk route="e"/>
    </person>
    <person id="800186" depart="324" departPos="random">
        <walk route="i"/>
    </person>
    <person id="800187" depart="325" departPos="random">
        <walk route="a"/>
    </person>
    <person id="800188" depart="325" departPos="random">
        <walk route="c"/>
    </person>
    <person id="800189" depart="325" departPos="random">
        <walk route="k"/>
    </person>
    <person id="800190" depart="325" departPos="random">
        <walk route="m"/>
    </person>
    <person id="800191" depart="329" departPos="random">
        <walk route="e"/>
    </person>
    <person id="800192" depart="330" departPos="random">
        <walk route="a"/>
    </person>
    <person id="800193" depart="331" departPos="random">
        <walk route="a"/>
    </person>
    <person id="800194" depart="331" departPos="random">
        <walk route="i"/>
    </person>
    <person id="800195" depart="333" departPos="random">
        <walk route="o"/>
    </person>
    <person id="800196" depart="334" departPos="random">
        <walk route="g"/>
    </person>
    <person id="800197" depart="334" departPos="random">
        <walk route="i"/>
    </person>
    <person id="800198" depart="334" departPos="random">
        <walk route="k"/>
    </person>
    <person id="800199" depart="336" departPos="random">
        <walk route="i"/>
    </person>
    <person id="800200" depart="337" departPos="random">
        <walk route="i"/>
    </person>
    <person id="800201" depart="340" departPos="random">
        <walk route="k"/>
    </person>
    <person id="800202" depart="342" departPos="random">
        <walk route="a"/>
    </person>
    <person id="800203" depart="342" departPos="random">
        <walk route="k"/>
    </person>
    <person id="800204" depart="344" departPos="random">
        <walk route="a"/>
    </person>
    <person id="800205" depart="346" departPos="random">
        <walk route="o"/>
    </person>
    <person id="800206" depart="347" departPos="random">
        <walk route="i"/>
    </person>
    <person id="800207" depart="350" departPos="random">
        <walk route="a"/>
    </person>
    <person id="800208" depart="351" departPos="random">
        <walk route="c"/>
    </person>
    <person id="800209" depart="351" departPos="random">
        <walk route="i"/>
    </person>
    <person id="800210" depart="355" departPos="random">
        <walk route="c"/>
    </person>
    <person id="800211" depart="356" departPos="random">
        <walk route="k"/>
    </person>
    <person id="800212" depart="357" departPos="random">
        <walk route="a"/>
    </person>
    <person id="800213" depart="358" departPos="random">
        <walk route="i"/>
    </person>
    <person id="800214" depart="359" departPos="random">
        <walk route="i"/>
    </person>
    <person id="800215" depart="360" departPos="random">
        <walk route="a"/>
    </person>
    <person id="800216" depart="360" departPos="random">
        <walk route="c"/>
    </person>
    <person id="800217" depart="365" departPos="random">
        <walk route="c"/>
    </person>
    <person id="800218" depart="366" departPos="random">
        <walk route="a"/>
    </person>
    <person id="800219" depart="373" departPos="random">
        <walk route="i"/>
    </person>
    <person id="800220" depart="373" departPos="random">
        <walk route="k"/>
    </person>
    <person id="800221" depart="375" departPos="random">
        <walk route="c"/>
    </person>
    <person id="800222" depart="375" departPos="random">
        <walk route="g"/>
    </person>
    <person id="800223" depart="377" departPos="random">
        <walk route="a"/>
    </person>
    <person id="800224" depart="377" departPos="random">
        <walk route="i"/>
    </person>
    <person id="800225" depart="377" departPos="random">
        <walk route="k"/>
    </person>
    <person id="800226" depart="378" departPos="random">
        <walk route="a"/>
    </person>
    <person id="800227" depart="378" departPos="random">
        <walk route="c"/>
    </person>
    <person id="800228" depart="382" departPos="random">
        <walk route="c"/>
    </person>
    <person id="800229" depart="382" departPos="random">
        <walk route="o"/>
    </person>
    <person id="800230" depart="383" departPos="random">
        <walk route="k"/>
    </person>
    <person id="800231" depart="384" departPos="random">
        <walk route="e"/>
    </person>
    <person id="800232" depart="386" departPos="random">
        <walk route="e"/>
    </person>
    <person id="800233" depart="386" departPos="random">
        <walk route="k"/>
    </person>
    <person id="800234" depart="387" departPos="random">
        <walk route="e"/>
    </person>
    <person id="800235" depart="388" departPos="random">
        <walk route="k"/>
    </person>
    <person id="800236" depart="389" departPos="random">
        <walk route="a"/>
    </person>
    <person id="800237" depart="393" departPos="random">
        <walk route="a"/>
    </person>
    <person id="800238" depart="396" departPos="random">
        <walk route="a"/>
    </person>
    <person id="800239" depart="397" departPos="random">
        <walk route="c"/>
    </person>
    <person id="800240" depart="400" departPos="random">
        <walk route="i"/>
    </person>
    <person id="800241" depart="401" departPos="random">
        <walk route="e"/>
    </person>
    <person id="800242" depart="401" departPos="random">
        <walk route="k"/>
    </person>
    <person id="800243" depart="404" departPos="random">
        <walk route="o"/>
    </person>
    <person id="800244" depart="405" departPos="random">
        <walk route="e"/>
    </person>
    <person id="800245" depart="405" departPos="random">
        <walk route="o"/>
    </person>
    <person id="800246" depart="408" departPos="random">
        <walk route="i"/>
    </person>
    <person id="800247" depart="408" departPos="random">
        <walk route="m"/>
    </person>
    <person id="800248" depart="411" departPos="random">
        <walk route="m"/>
    </person>
    <person id="800249" depart="416" departPos="random">
        <walk route="c"/>
    </person>
    <person id="800250" depart="418" departPos="random">
        <walk route="c"/>
    </person>
    <person id="800251" depart="418" departPos="random">
        <walk route="k"/>
    </person>
    <person id="800252" depart="422" departPos="random">
        <walk route="e"/>
    </person>
    <person id="800253" depart="422" departPos="random">
        <walk route="k"/>
    </person>
    <person id="800254" depart="424" departPos="random">
        <walk route="o"/>
    </person>
    <person id="800255" depart="426" departPos="random">
        <walk route="a"/>
    </person>
    <person id="800256" depart="427" departPos="random">
        <walk route="m"/>
    </person>
    <person id="800257" depart="428" departPos="random">
        <walk route="c"/>
    </person>
    <person id="800258" depart="430" departPos="random">
        <walk route="e"/>
    </person>
    <person id="800259" depart="431" departPos="random">
        <walk route="i"/>
    </person>
    <person id="800260" depart="434" departPos="random">
        <walk route="k"/>
    </person>
    <person id="800261" depart="438" departPos="random">
        <walk route="a"/>
    </person>
    <person id="800262" depart="439" departPos="random">
        <walk route="m"/>
    </person>
    <person id="800263" depart="440" departPos="random">
        <walk route="i"/>
    </person>
    <person id="800264" depart="444" departPos="random">
        <walk route="c"/>
    </person>
    <person id="800265" depart="444" departPos="random">
        <walk route="i"/>
    </person>
    <person id="800266" depart="444" departPos="random">
        <walk route="k"/>
    </person>
    <person id="800267" depart="449" departPos="random">
        <walk route="c"/>
    </person>
    <person id="800268" depart="449" departPos="random">
        <walk route="m"/>
    </person>
    <person id="800269" depart="452" departPos="random">
        <walk route="c"/>
    </person>
    <person id="800270" depart="453" departPos="random">
        <walk route="i"/>
    </person>
    <person id="800271" depart="453" departPos="random">
        <walk route="k"/>
    </person>
    <person id="800272" depart="454" departPos="random">
        <walk route="c"/>
    </person>
    <person id="800273" depart="455" departPos="random">
        <walk route="i"/>
    </person>
    <person id="800274" depart="456" departPos="random">
        <walk route="m"/>
    </person>
    <person id="800275" depart="457" departPos="random">
        <walk route="c"/>
    </person>
    <person id="800276" depart="459" departPos="random">
        <walk route="g"/>
    </person>
    <person id="800277" depart="459" departPos="random">
        <walk route="i"/>
    </person>
    <person id="800278" depart="462" departPos="random">
        <walk route="c"/>
    </person>
    <person id="800279" depart="464" departPos="random">
        <walk route="c"/>
    </person>
    <person id="800280" depart="471" departPos="random">
        <walk route="a"/>
    </person>
    <person id="800281" depart="473" departPos="random">
        <walk route="k"/>
    </person>
    <person id="800282" depart="477" departPos="random">
        <walk route="i"/>
    </person>
    <person id="800283" depart="478" departPos="random">
        <walk route="a"/>
    </person>
    <person id="800284" depart="478" departPos="random">
        <walk route="k"/>
    </person>
    <person id="800285" depart="480" departPos="random">
        <walk route="k"/>
    </person>
    <person id="800286" depart="485" departPos="random">
        <walk route="k"/>
    </person>
    <person id="800287" depart="486" departPos="random">
        <walk route="g"/>
    </person>
    <person id="800288" depart="486" departPos="random">
        <walk route="k"/>
    </person>
    <person id="800289" depart="489" departPos="random">
        <walk route="c"/>
    </person>
    <person id="800290" depart="491" departPos="random">
        <walk route="a"/>
    </person>
    <person id="800291" depart="492" departPos="random">
        <walk route="m"/>
    </person>
    <person id="800292" depart="493" departPos="random">
        <walk route="c"/>
    </person>
    <person id="800293" depart="495" departPos="random">
        <walk route="a"/>
    </person>
    <person id="800294" depart="495" departPos="random">
        <walk route="k"/>
    </person>
    <person id="800295" depart="496" departPos="random">
        <walk route="g"/>
    </person>
    <person id="800296" depart="496" departPos="random">
        <walk route="i"/>
    </person>
    <person id="800297" depart="500" departPos="random">
        <walk route="e"/>
    </person>
    <person id="800298" depart="501" departPos="random">
        <walk route="c"/>
    </person>
    <person id="800299" depart="503" departPos="random">
        <walk route="a"/>
    </person>
    <person id="800300" depart="503" departPos="random">
        <walk route="i"/>
    </person>
    <person id="800301" depart="503" departPos="random">
        <walk route="k"/>
    </person>
    <person id="800302" depart="507" departPos="random">
        <walk route="a"/>
    </person>
    <person id="800303" depart="507" departPos="random">
        <walk route="i"/>
    </person>