<routes>
        
            <vType id="Volkswagen" accel="2.3" decel="4.5" sigma="0.5" length="4.0" maxSpeed="60" color="124,252,0" vClass="private" emissionClass="P_7_7"/>  
        
            <route id="1" edges="a_1 1_2 2_3 3_10 10_9 9_c"/>
            <route id="2" edges="a_1 1_2 2_3 3_11 11_12 12_d"/>
            <route id="3" edges="a_1 1_2 2_3 3_4 4_5 5_6 6_14 14_13 13_e"/>
            <route id="4" edges="a_1 1_2 2_3 3_4 4_5 5_6 6_15 15_16 16_f"/>
            <route id="5" edges="a_1 1_2 2_3 3_4 4_5 5_6 6_7 7_8 8_b"/>

            <route id="6" edges="b_8 8_7 7_6 6_15 15_16 16_f"/>
            <route id="7" edges="b_8 8_7 7_6 6_14 14_13 13_e"/>
            <route id="8" edges="b_8 8_7 7_6 6_5 5_4 4_3 3_2 2_1 1_a"/>
            <route id="9" edges="b_8 8_7 7_6 6_5 5_4 4_3 3_11 11_12 12_d"/> 
            <route id="10" edges="b_8 8_7 7_6 6_5 5_4 4_3 3_10 10_9 9_c"/>
            
            <route id="11" edges="d_12 12_11 11_3 3_10 10_9 9_c"/>
            <route id="12" edges="d_12 12_11 11_3  3_2 2_1 1_a "/>
            <route id="13" edges="d_12 12_11 11_3 3_4 4_5 5_6 6_7 7_8 8_b"/>
            <route id="14" edges="d_12 12_11 11_3  3_4 4_5 5_6 6_15 15_16 16_f"/> 
            <route id="15" edges="d_12 12_11 11_3 3_4 4_5 5_6 6_14 14_13 13_e"/>
            
            <route id="16" edges="c_9 9_10 10_3 3_2 2_1 1_a"/>
            <route id="17" edges="c_9 9_10 10_3 3_11 11_12 12_d"/>
            <route id="18" edges="c_9 9_10 10_3 3_4 4_5 5_6 6_15 15_16 16_f"/>
            <route id="19" edges="c_9 9_10 10_3 3_4 4_5 5_6 6_14 14_13 13_e"/> 
            <route id="20" edges="c_9 9_10 10_3 3_4 4_5 5_6 6_7 7_8 8_b"/>
            
            <route id="21" edges="f_16 16_15 15_6 6_7 7_8 8_b"/>
            <route id="22" edges="f_16 16_15 15_6 6_14 14_13 13_e"/>
            <route id="23" edges="f_16 16_15 15_6 6_5 5_4 4_3 3_11 11_12 12_d"/>
            <route id="24" edges="f_16 16_15 15_6 6_5 5_4 4_3 3_10 10_9 9_c"/> 
            <route id="25" edges="f_16 16_15 15_6 6_5 5_4 4_3 3_2 2_1 1_a"/>
            
            <route id="26" edges="e_13 13_14 14_6 6_7 7_8 8_b"/>
            <route id="27" edges="e_13 13_14 14_6 6_15 15_16 16_f"/>
            <route id="28" edges="e_13 13_14 14_6 6_5 5_4 4_3 3_11 11_12 12_d"/>
            <route id="29" edges="e_13 13_14 14_6 6_5 5_4 4_3 3_10 10_9 9_c"/> 
            <route id="30" edges="e_13 13_14 14_6 6_5 5_4 4_3 3_2 2_1 1_a"/>	
                        
        
    <vehicle id="0" type="Volkswagen" route="11" depart="11" departLane="free" departSpeed="random" />
    <vehicle id="1" type="Volkswagen" route="8" depart="18" departLane="free" departSpeed="random" />
    <vehicle id="2" type="Volkswagen" route="27" depart="21" departLane="free" departSpeed="random" />
    <vehicle id="3" type="Volkswagen" route="5" depart="22" departLane="free" departSpeed="random" />
    <vehicle id="4" type="Volkswagen" route="3" depart="24" departLane="free" departSpeed="random" />
    <vehicle id="5" type="Volkswagen" route="17" depart="24" departLane="free" departSpeed="random" />
    <vehicle id="6" type="Volkswagen" route="22" depart="32" departLane="free" departSpeed="random" />
    <vehicle id="7" type="Volkswagen" route="8" depart="37" departLane="free" departSpeed="random" />
    <vehicle id="8" type="Volkswagen" route="8" depart="41" departLane="free" departSpeed="random" />
    <vehicle id="9" type="Volkswagen" route="22" depart="51" departLane="free" departSpeed="random" />
    <vehicle id="10" type="Volkswagen" route="6" depart="81" departLane="free" departSpeed="random" />
    <vehicle id="11" type="Volkswagen" route="8" depart="94" departLane="free" departSpeed="random" />
    <vehicle id="12" type="Volkswagen" route="3" depart="97" departLane="free" departSpeed="random" />
    <vehicle id="13" type="Volkswagen" route="27" depart="97" departLane="free" departSpeed="random" />
    <vehicle id="14" type="Volkswagen" route="11" depart="102" departLane="free" departSpeed="random" />
    <vehicle id="15" type="Volkswagen" route="17" depart="108" departLane="free" departSpeed="random" />
    <vehicle id="16" type="Volkswagen" route="17" depart="118" departLane="free" departSpeed="random" />
    <vehicle id="17" type="Volkswagen" route="5" depart="125" departLane="free" departSpeed="random" />
    <vehicle id="18" type="Volkswagen" route="4" depart="127" departLane="free" departSpeed="random" />
    <vehicle id="19" type="Volkswagen" route="5" depart="130" departLane="free" departSpeed="random" />
    <vehicle id="20" type="Volkswagen" route="26" depart="131" departLane="free" departSpeed="random" />
    <vehicle id="21" type="Volkswagen" route="5" depart="142" departLane="free" departSpeed="random" />
    <vehicle id="22" type="Volkswagen" route="5" depart="152" departLane="free" departSpeed="random" />
    <vehicle id="23" type="Volkswagen" route="5" depart="184" departLane="free" departSpeed="random" />
    <vehicle id="24" type="Volkswagen" route="17" depart="194" departLane="free" departSpeed="random" />
    <vehicle id="25" type="Volkswagen" route="11" depart="200" departLane="free" departSpeed="random" />
    <vehicle id="26" type="Volkswagen" route="8" depart="203" departLane="free" departSpeed="random" />
    <vehicle id="27" type="Volkswagen" route="5" depart="210" departLane="free" departSpeed="random" />
    <vehicle id="28" type="Volkswagen" route="3" depart="214" departLane="free" departSpeed="random" />
    <vehicle id="29" type="Volkswagen" route="5" depart="222" departLane="free" departSpeed="random" />
    <vehicle id="30" type="Volkswagen" route="1" depart="235" departLane="free" departSpeed="random" />
    <vehicle id="31" type="Volkswagen" route="3" depart="260" departLane="free" departSpeed="random" />
    <vehicle id="32" type="Volkswagen" route="5" depart="282" departLane="free" departSpeed="random" />
    <vehicle id="33" type="Volkswagen" route="27" depart="298" departLane="free" departSpeed="random" />
    <vehicle id="34" type="Volkswagen" route="8" depart="299" departLane="free" departSpeed="random" />
    <vehicle id="35" type="Volkswagen" route="8" depart="303" departLane="free" departSpeed="random" />
    <vehicle id="36" type="Volkswagen" route="8" depart="307" departLane="free" departSpeed="random" />
    <vehicle id="37" type="Volkswagen" route="10" depart="322" departLane="free" departSpeed="random" />
    <vehicle id="38" type="Volkswagen" route="8" depart="325" departLane="free" departSpeed="random" />
    <vehicle id="39" type="Volkswagen" route="5" depart="328" departLane="free" departSpeed="random" />
    <vehicle id="40" type="Volkswagen" route="5" depart="335" departLane="free" departSpeed="random" />
    <vehicle id="41" type="Volkswagen" route="26" depart="337" departLane="free" departSpeed="random" />
    <vehicle id="42" type="Volkswagen" route="30" depart="344" departLane="free" departSpeed="random" />
    <vehicle id="43" type="Volkswagen" route="9" depart="347" departLane="free" departSpeed="random" />
    <vehicle id="44" type="Volkswagen" route="9" depart="350" departLane="free" departSpeed="random" />
    <vehicle id="45" type="Volkswagen" route="5" depart="371" departLane="free" departSpeed="random" />
    <vehicle id="46" type="Volkswagen" route="5" depart="373" departLane="free" departSpeed="random" />
    <vehicle id="47" type="Volkswagen" route="8" depart="383" departLane="free" departSpeed="random" />
    <vehicle id="48" type="Volkswagen" route="27" depart="388" departLane="free" departSpeed="random" />
    <vehicle id="49" type="Volkswagen" route="27" depart="393" departLane="free" departSpeed="random" />
    <vehicle id="50" type="Volkswagen" route="10" depart="396" departLane="free" departSpeed="random" />
    <vehicle id="51" type="Volkswagen" route="7" depart="398" departLane="free" departSpeed="random" />
    <vehicle id="52" type="Volkswagen" route="11" depart="402" departLane="free" departSpeed="random" />
    <vehicle id="53" type="Volkswagen" route="8" depart="471" departLane="free" departSpeed="random" />
    <vehicle id="54" type="Volkswagen" route="8" depart="486" departLane="free" departSpeed="random" />
    <vehicle id="55" type="Volkswagen" route="3" depart="516" departLane="free" departSpeed="random" />
    <vehicle id="56" type="Volkswagen" route="8" depart="522" departLane="free" departSpeed="random" />
    <vehicle id="57" type="Volkswagen" route="7" depart="527" departLane="free" departSpeed="random" />
    <vehicle id="58" type="Volkswagen" route="27" depart="560" departLane="free" departSpeed="random" />
    <vehicle id="59" type="Volkswagen" route="9" depart="563" departLane="free" departSpeed="random" />
    <vehicle id="60" type="Volkswagen" route="7" depart="588" departLane="free" departSpeed="random" />
    <vehicle id="61" type="Volkswagen" route="8" depart="594" departLane="free" departSpeed="random" />
    <vehicle id="62" type="Volkswagen" route="27" depart="598" departLane="free" departSpeed="random" />
    <vehicle id="63" type="Volkswagen" route="22" depart="600" departLane="free" departSpeed="random" />
    <vehicle id="64" type="Volkswagen" route="22" depart="604" departLane="free" departSpeed="random" />
    <vehicle id="65" type="Volkswagen" route="12" depart="618" departLane="free" departSpeed="random" />
    <vehicle id="66" type="Volkswagen" route="5" depart="620" departLane="free" departSpeed="random" />
    <vehicle id="67" type="Volkswagen" route="8" depart="648" departLane="free" departSpeed="random" />
    <vehicle id="68" type="Volkswagen" route="27" depart="652" departLane="free" departSpeed="random" />
    <vehicle id="69" type="Volkswagen" route="5" depart="665" departLane="free" departSpeed="random" />
    <vehicle id="70" type="Volkswagen" route="2" depart="671" departLane="free" departSpeed="random" />
    <vehicle id="71" type="Volkswagen" route="7" depart="675" departLane="free" departSpeed="random" />
    <vehicle id="72" type="Volkswagen" route="11" depart="686" departLane="free" departSpeed="random" />
    <vehicle id="73" type="Volkswagen" route="27" depart="692" departLane="free" departSpeed="random" />
    <vehicle id="74" type="Volkswagen" route="22" depart="700" departLane="free" departSpeed="random" />
    <vehicle id="75" type="Volkswagen" route="5" depart="705" departLane="free" departSpeed="random" />
    <vehicle id="76" type="Volkswagen" route="22" depart="717" departLane="free" departSpeed="random" />
    <vehicle id="77" type="Volkswagen" route="27" depart="721" departLane="free" departSpeed="random" />
    <vehicle id="78" type="Volkswagen" route="5" depart="728" departLane="free" departSpeed="random" />
    <vehicle id="79" type="Volkswagen" route="8" depart="733" departLane="free" departSpeed="random" />
    <vehicle id="80" type="Volkswagen" route="20" depart="739" departLane="free" departSpeed="random" />
    <vehicle id="81" type="Volkswagen" route="1" depart="746" departLane="free" departSpeed="random" />
    <vehicle id="82" type="Volkswagen" route="5" depart="757" departLane="free" departSpeed="random" />
    <vehicle id="83" type="Volkswagen" route="8" depart="764" departLane="free" departSpeed="random" />
    <vehicle id="84" type="Volkswagen" route="22" depart="779" departLane="free" departSpeed="random" />
    <vehicle id="85" type="Volkswagen" route="5" depart="780" departLane="free" departSpeed="random" />
    <vehicle id="86" type="Volkswagen" route="22" depart="794" departLane="free" departSpeed="random" />
    <vehicle id="87" type="Volkswagen" route="8" depart="795" departLane="free" departSpeed="random" />
    <vehicle id="88" type="Volkswagen" route="8" depart="801" departLane="free" departSpeed="random" />
    <vehicle id="89" type="Volkswagen" route="5" depart="815" departLane="free" departSpeed="random" />
    <vehicle id="90" type="Volkswagen" route="8" depart="824" departLane="free" departSpeed="random" />
    <vehicle id="91" type="Volkswagen" route="11" depart="826" departLane="free" departSpeed="random" />
    <vehicle id="92" type="Volkswagen" route="27" depart="835" departLane="free" departSpeed="random" />
    <vehicle id="93" type="Volkswagen" route="5" depart="837" departLane="free" departSpeed="random" />
    <vehicle id="94" type="Volkswagen" route="7" depart="849" departLane="free" departSpeed="random" />
    <vehicle id="95" type="Volkswagen" route="5" depart="864" departLane="free" departSpeed="random" />
    <vehicle id="96" type="Volkswagen" route="11" depart="865" departLane="free" departSpeed="random" />
    <vehicle id="97" type="Volkswagen" route="5" depart="867" departLane="free" departSpeed="random" />
    <vehicle id="98" type="Volkswagen" route="8" depart="891" departLane="free" departSpeed="random" />
    <vehicle id="99" type="Volkswagen" route="7" depart="900" departLane="free" departSpeed="random" />
    <vehicle id="100" type="Volkswagen" route="9" depart="903" departLane="free" departSpeed="random" />
    <vehicle id="101" type="Volkswagen" route="8" depart="904" departLane="free" departSpeed="random" />
    <vehicle id="102" type="Volkswagen" route="7" depart="911" departLane="free" departSpeed="random" />
    <vehicle id="103" type="Volkswagen" route="17" depart="933" departLane="free" departSpeed="random" />
    <vehicle id="104" type="Volkswagen" route="2" depart="936" departLane="free" departSpeed="random" />
    <vehicle id="105" type="Volkswagen" route="27" depart="945" departLane="free" departSpeed="random" />
    <vehicle id="106" type="Volkswagen" route="27" depart="966" departLane="free" departSpeed="random" />
    <vehicle id="107" type="Volkswagen" route="5" depart="967" departLane="free" departSpeed="random" />
    <vehicle id="108" type="Volkswagen" route="8" depart="978" departLane="free" departSpeed="random" />
    <vehicle id="109" type="Volkswagen" route="5" depart="998" departLane="free" departSpeed="random" />
    <vehicle id="110" type="Volkswagen" route="6" depart="1007" departLane="free" departSpeed="random" />
    <vehicle id="111" type="Volkswagen" route="25" depart="1008" departLane="free" departSpeed="random" />
    <vehicle id="112" type="Volkswagen" route="22" depart="1015" departLane="free" departSpeed="random" />
    <vehicle id="113" type="Volkswagen" route="8" depart="1019" departLane="free" departSpeed="random" />
    <vehicle id="114" type="Volkswagen" route="8" depart="1041" departLane="free" departSpeed="random" />
    <vehicle id="115" type="Volkswagen" route="2" depart="1054" departLane="free" departSpeed="random" />
    <vehicle id="116" type="Volkswagen" route="8" depart="1054" departLane="free" departSpeed="random" />
    <vehicle id="117" type="Volkswagen" route="5" depart="1065" departLane="free" departSpeed="random" />
    <vehicle id="118" type="Volkswagen" route="5" depart="1072" departLane="free" departSpeed="random" />
    <vehicle id="119" type="Volkswagen" route="8" depart="1083" departLane="free" departSpeed="random" />
    <vehicle id="120" type="Volkswagen" route="6" depart="1087" departLane="free" departSpeed="random" />
    <vehicle id="121" type="Volkswagen" route="3" depart="1089" departLane="free" departSpeed="random" />
    <vehicle id="122" type="Volkswagen" route="10" depart="1089" departLane="free" departSpeed="random" />
    <vehicle id="123" type="Volkswagen" route="27" depart="1101" departLane="free" departSpeed="random" />
    <vehicle id="124" type="Volkswagen" route="27" depart="1109" departLane="free" departSpeed="random" />
    <vehicle id="125" type="Volkswagen" route="16" depart="1111" departLane="free" departSpeed="random" />
    <vehicle id="126" type="Volkswagen" route="27" depart="1115" departLane="free" departSpeed="random" />
    <vehicle id="127" type="Volkswagen" route="6" depart="1121" departLane="free" departSpeed="random" />
    <vehicle id="128" type="Volkswagen" route="22" depart="1130" departLane="free" departSpeed="random" />
    <vehicle id="129" type="Volkswagen" route="1" depart="1140" departLane="free" departSpeed="random" />
    <vehicle id="130" type="Volkswagen" route="8" depart="1156" departLane="free" departSpeed="random" />
    <vehicle id="131" type="Volkswagen" route="22" depart="1160" departLane="free" departSpeed="random" />
    <vehicle id="132" type="Volkswagen" route="8" depart="1173" departLane="free" departSpeed="random" />
    <vehicle id="133" type="Volkswagen" route="5" depart="1185" departLane="free" departSpeed="random" />
    <vehicle id="134" type="Volkswagen" route="1" depart="1205" departLane="free" departSpeed="random" />
    <vehicle id="135" type="Volkswagen" route="5" depart="1205" departLane="free" departSpeed="random" />
    <vehicle id="136" type="Volkswagen" route="5" depart="1209" departLane="free" departSpeed="random" />
    <vehicle id="137" type="Volkswagen" route="1" depart="1212" departLane="free" departSpeed="random" />
    <vehicle id="138" type="Volkswagen" route="7" depart="1226" departLane="free" departSpeed="random" />
    <vehicle id="139" type="Volkswagen" route="22" depart="1228" departLane="free" departSpeed="random" />
    <vehicle id="140" type="Volkswagen" route="27" depart="1231" departLane="free" departSpeed="random" />
    <vehicle id="141" type="Volkswagen" route="6" depart="1234" departLane="free" departSpeed="random" />
    <vehicle id="142" type="Volkswagen" route="17" depart="1257" departLane="free" departSpeed="random" />
    <vehicle id="143" type="Volkswagen" route="11" depart="1265" departLane="free" departSpeed="random" />
    <vehicle id="144" type="Volkswagen" route="5" depart="1266" departLane="free" departSpeed="random" />
    <vehicle id="145" type="Volkswagen" route="5" depart="1275" departLane="free" departSpeed="random" />
    <vehicle id="146" type="Volkswagen" route="5" depart="1287" departLane="free" departSpeed="random" />
    <vehicle id="147" type="Volkswagen" route="22" depart="1294" departLane="free" departSpeed="random" />
    <vehicle id="148" type="Volkswagen" route="30" depart="1317" departLane="free" departSpeed="random" />
    <vehicle id="149" type="Volkswagen" route="5" depart="1319" departLane="free" departSpeed="random" />
    <vehicle id="150" type="Volkswagen" route="11" depart="1332" departLane="free" departSpeed="random" />
    <vehicle id="151" type="Volkswagen" route="27" depart="1356" departLane="free" departSpeed="random" />
    <vehicle id="152" type="Volkswagen" route="6" depart="1367" departLane="free" departSpeed="random" />
    <vehicle id="153" type="Volkswagen" route="8" depart="1372" departLane="free" departSpeed="random" />
    <vehicle id="154" type="Volkswagen" route="9" depart="1376" departLane="free" departSpeed="random" />
    <vehicle id="155" type="Volkswagen" route="17" depart="1394" departLane="free" departSpeed="random" />
    <vehicle id="156" type="Volkswagen" route="17" depart="1422" departLane="free" departSpeed="random" />
    <vehicle id="157" type="Volkswagen" route="8" depart="1431" departLane="free" departSpeed="random" />
    <vehicle id="158" type="Volkswagen" route="9" depart="1450" departLane="free" departSpeed="random" />
    <vehicle id="159" type="Volkswagen" route="11" depart="1452" departLane="free" departSpeed="random" />
    <vehicle id="160" type="Volkswagen" route="8" depart="1455" departLane="free" departSpeed="random" />
    <vehicle id="161" type="Volkswagen" route="27" depart="1456" departLane="free" departSpeed="random" />
    <vehicle id="162" type="Volkswagen" route="17" depart="1457" departLane="free" departSpeed="random" />
    <vehicle id="163" type="Volkswagen" route="9" depart="1466" departLane="free" departSpeed="random" />
    <vehicle id="164" type="Volkswagen" route="11" depart="1469" departLane="free" departSpeed="random" />
    <vehicle id="165" type="Volkswagen" route="2" depart="1471" departLane="free" departSpeed="random" />
    <vehicle id="166" type="Volkswagen" route="8" depart="1481" departLane="free" departSpeed="random" />
    <vehicle id="167" type="Volkswagen" route="22" depart="1492" departLane="free" departSpeed="random" />
    <vehicle id="168" type="Volkswagen" route="8" depart="1503" departLane="free" departSpeed="random" />
    <vehicle id="169" type="Volkswagen" route="8" depart="1510" departLane="free" departSpeed="random" />
    <vehicle id="170" type="Volkswagen" route="9" depart="1519" departLane="free" departSpeed="random" />
    <vehicle id="171" type="Volkswagen" route="5" depart="1540" departLane="free" departSpeed="random" />
    <vehicle id="172" type="Volkswagen" route="17" depart="1543" departLane="free" departSpeed="random" />
    <vehicle id="173" type="Volkswagen" route="6" depart="1550" departLane="free" departSpeed="random" />
    <vehicle id="174" type="Volkswagen" route="7" depart="1553" departLane="free" departSpeed="random" />
    <vehicle id="175" type="Volkswagen" route="9" depart="1558" departLane="free" departSpeed="random" />
    <vehicle id="176" type="Volkswagen" route="5" depart="1576" departLane="free" departSpeed="random" />
    <vehicle id="177" type="Volkswagen" route="5" depart="1580" departLane="free" departSpeed="random" />
    <vehicle id="178" type="Volkswagen" route="5" depart="1581" departLane="free" departSpeed="random" />
    <vehicle id="179" type="Volkswagen" route="11" depart="1598" departLane="free" departSpeed="random" />
    <vehicle id="180" type="Volkswagen" route="22" depart="1601" departLane="free" departSpeed="random" />
    <vehicle id="181" type="Volkswagen" route="17" depart="1605" departLane="free" departSpeed="random" />
    <vehicle id="182" type="Volkswagen" route="10" depart="1608" departLane="free" departSpeed="random" />
    <vehicle id="183" type="Volkswagen" route="8" depart="1612" departLane="free" departSpeed="random" />
    <vehicle id="184" type="Volkswagen" route="4" depart="1613" departLane="free" departSpeed="random" />
    <vehicle id="185" type="Volkswagen" route="5" depart="1618" departLane="free" departSpeed="random" />
    <vehicle id="186" type="Volkswagen" route="4" depart="1626" departLane="free" departSpeed="random" />
    <vehicle id="187" type="Volkswagen" route="5" depart="1636" departLane="free" departSpeed="random" />
    <vehicle id="188" type="Volkswagen" route="5" depart="1642" departLane="free" departSpeed="random" />
    <vehicle id="189" type="Volkswagen" route="8" depart="1646" departLane="free" departSpeed="random" />
    <vehicle id="190" type="Volkswagen" route="5" depart="1650" departLane="free" departSpeed="random" />
    <vehicle id="191" type="Volkswagen" route="8" depart="1653" departLane="free" departSpeed="random" />
    <vehicle id="192" type="Volkswagen" route="5" depart="1654" departLane="free" departSpeed="random" />
    <vehicle id="193" type="Volkswagen" route="1" depart="1658" departLane="free" departSpeed="random" />
    <vehicle id="194" type="Volkswagen" route="8" depart="1661" departLane="free" departSpeed="random" />
    <vehicle id="195" type="Volkswagen" route="7" depart="1668" departLane="free" departSpeed="random" />
    <vehicle id="196" type="Volkswagen" route="8" depart="1675" departLane="free" departSpeed="random" />
    <vehicle id="197" type="Volkswagen" route="8" depart="1688" departLane="free" departSpeed="random" />
    <vehicle id="198" type="Volkswagen" route="5" depart="1694" departLane="free" departSpeed="random" />
    <vehicle id="199" type="Volkswagen" route="5" depart="1699" departLane="free" departSpeed="random" />
    <vehicle id="200" type="Volkswagen" route="25" depart="1725" departLane="free" departSpeed="random" />
    <vehicle id="201" type="Volkswagen" route="8" depart="1735" departLane="free" departSpeed="random" />
    <vehicle id="202" type="Volkswagen" route="9" depart="1747" departLane="free" departSpeed="random" />
    <vehicle id="203" type="Volkswagen" route="7" depart="1748" departLane="free" departSpeed="random" />
    <vehicle id="204" type="Volkswagen" route="8" depart="1749" departLane="free" departSpeed="random" />
    <vehicle id="205" type="Volkswagen" route="6" depart="1752" departLane="free" departSpeed="random" />
    <vehicle id="206" type="Volkswagen" route="8" depart="1763" departLane="free" departSpeed="random" />
    <vehicle id="207" type="Volkswagen" route="22" depart="1763" departLane="free" departSpeed="random" />
    <vehicle id="208" type="Volkswagen" route="4" depart="1772" departLane="free" departSpeed="random" />
    <vehicle id="209" type="Volkswagen" route="8" depart="1787" departLane="free" departSpeed="random" />
    <vehicle id="210" type="Volkswagen" route="22" depart="1809" departLane="free" departSpeed="random" />
    <vehicle id="211" type="Volkswagen" route="4" depart="1812" departLane="free" departSpeed="random" />
    <vehicle id="212" type="Volkswagen" route="8" depart="1812" departLane="free" departSpeed="random" />
    <vehicle id="213" type="Volkswagen" route="5" depart="1813" departLane="free" departSpeed="random" />
    <vehicle id="214" type="Volkswagen" route="8" depart="1817" departLane="free" departSpeed="random" />
    <vehicle id="215" type="Volkswagen" route="27" depart="1826" departLane="free" departSpeed="random" />
    <vehicle id="216" type="Volkswagen" route="11" depart="1842" departLane="free" departSpeed="random" />
    <vehicle id="217" type="Volkswagen" route="5" depart="1849" departLane="free" departSpeed="random" />
    <vehicle id="218" type="Volkswagen" route="5" depart="1869" departLane="free" departSpeed="random" />
    <vehicle id="219" type="Volkswagen" route="4" depart="1892" departLane="free" departSpeed="random" />
    <vehicle id="220" type="Volkswagen" route="3" depart="1910" departLane="free" departSpeed="random" />
    <vehicle id="221" type="Volkswagen" route="11" depart="1920" departLane="free" departSpeed="random" />
    <vehicle id="222" type="Volkswagen" route="17" depart="1926" departLane="free" departSpeed="random" />
    <vehicle id="223" type="Volkswagen" route="8" depart="1940" departLane="free" departSpeed="random" />
    <vehicle id="224" type="Volkswagen" route="17" depart="1952" departLane="free" departSpeed="random" />
    <vehicle id="225" type="Volkswagen" route="11" depart="1981" departLane="free" departSpeed="random" />
    <vehicle id="226" type="Volkswagen" route="27" depart="1998" departLane="free" departSpeed="random" />
    <vehicle id="227" type="Volkswagen" route="8" depart="2005" departLane="free" departSpeed="random" />
    <vehicle id="228" type="Volkswagen" route="8" depart="2029" departLane="free" departSpeed="random" />
    <vehicle id="229" type="Volkswagen" route="8" depart="2030" departLane="free" departSpeed="random" />
    <vehicle id="230" type="Volkswagen" route="12" depart="2031" departLane="free" departSpeed="random" />
    <vehicle id="231" type="Volkswagen" route="8" depart="2036" departLane="free" departSpeed="random" />
    <vehicle id="232" type="Volkswagen" route="17" depart="2065" departLane="free" departSpeed="random" />
    <vehicle id="233" type="Volkswagen" route="8" depart="2067" departLane="free" departSpeed="random" />
    <vehicle id="234" type="Volkswagen" route="5" depart="2091" departLane="free" departSpeed="random" />
    <vehicle id="235" type="Volkswagen" route="5" depart="2092" departLane="free" departSpeed="random" />
    <vehicle id="236" type="Volkswagen" route="5" depart="2111" departLane="free" departSpeed="random" />
    <vehicle id="237" type="Volkswagen" route="11" depart="2117" departLane="free" departSpeed="random" />
    <vehicle id="238" type="Volkswagen" route="17" depart="2141" departLane="free" departSpeed="random" />
    <vehicle id="239" type="Volkswagen" route="6" depart="2143" departLane="free" departSpeed="random" />
    <vehicle id="240" type="Volkswagen" route="27" depart="2155" departLane="free" departSpeed="random" />
    <vehicle id="241" type="Volkswagen" route="22" depart="2156" departLane="free" departSpeed="random" />
    <vehicle id="242" type="Volkswagen" route="22" depart="2161" departLane="free" departSpeed="random" />
    <vehicle id="243" type="Volkswagen" route="5" depart="2171" departLane="free" departSpeed="random" />
    <vehicle id="244" type="Volkswagen" route="17" depart="2174" departLane="free" departSpeed="random" />
    <vehicle id="245" type="Volkswagen" route="10" depart="2183" departLane="free" departSpeed="random" />
    <vehicle id="246" type="Volkswagen" route="8" depart="2184" departLane="free" departSpeed="random" />
    <vehicle id="247" type="Volkswagen" route="2" depart="2191" departLane="free" departSpeed="random" />
    <vehicle id="248" type="Volkswagen" route="8" depart="2206" departLane="free" departSpeed="random" />
    <vehicle id="249" type="Volkswagen" route="26" depart="2215" departLane="free" departSpeed="random" />
    <vehicle id="250" type="Volkswagen" route="27" depart="2222" departLane="free" departSpeed="random" />
    <vehicle id="251" type="Volkswagen" route="17" depart="2224" departLane="free" departSpeed="random" />
    <vehicle id="252" type="Volkswagen" route="8" depart="2226" departLane="free" departSpeed="random" />
    <vehicle id="253" type="Volkswagen" route="27" depart="2233" departLane="free" departSpeed="random" />
    <vehicle id="254" type="Volkswagen" route="9" depart="2245" departLane="free" departSpeed="random" />
    <vehicle id="255" type="Volkswagen" route="8" depart="2254" departLane="free" departSpeed="random" />
    <vehicle id="256" type="Volkswagen" route="11" depart="2256" departLane="free" departSpeed="random" />
    <vehicle id="257" type="Volkswagen" route="5" depart="2262" departLane="free" departSpeed="random" />
    <vehicle id="258" type="Volkswagen" route="11" depart="2277" departLane="free" departSpeed="random" />
    <vehicle id="259" type="Volkswagen" route="8" depart="2280" departLane="free" departSpeed="random" />
    <vehicle id="260" type="Volkswagen" route="4" depart="2287" departLane="free" departSpeed="random" />