<?xml version="1.0" encoding="UTF-8"?>

<!-- generated on 11.06.2013 16:53:07 by Netedit Version dev-SVN-r14150
<?xml version="1.0" encoding="UTF-8"?>

<configuration xmlns:xsi="http://www.w3.org/2001/XMLSchema-instance" xsi:noNamespaceSchemaLocation="http://sumo.sf.net/xsd/netedit.exeConfiguration.xsd">

    <input>
        <sumo-net-file value="C:\Users\aref_ch\Thesis simulation\test_semi_syncronized - Copy\t.net.xml"/>
    </input>

    <output>
        <output-file value="C:\Users\aref_ch\Thesis simulation\test_semi_syncronized - Copy\t.net.xml"/>
    </output>

    <processing>
        <no-turnarounds value="true"/>
        <offset.disable-normalization value="true"/>
    </processing>

</configuration>
-->

<net version="0.13" xmlns:xsi="http://www.w3.org/2001/XMLSchema-instance" xsi:noNamespaceSchemaLocation="http://sumo.sf.net/xsd/net_file.xsd">

    <location netOffset="1100.00,1100.00" convBoundary="0.00,-2.73,2500.00,2219.00" origBoundary="-1100.00,-1100.00,1400.00,1100.00" projParameter="!"/>

    <edge id=":1_0" function="internal">
        <lane id=":1_0_0" index="0" speed="13.89" length="0.10" shape="100.00,1101.65 100.00,1101.65"/>
    </edge>
    <edge id=":1_1" function="internal">
        <lane id=":1_1_0" index="0" speed="13.89" length="0.10" shape="100.00,1098.35 100.00,1098.35"/>
    </edge>
    <edge id=":10_0" function="internal">
        <lane id=":10_0_0" index="0" speed="13.89" length="3.00" shape="1098.35,996.50 1098.35,993.50"/>
    </edge>
    <edge id=":10_1" function="internal">
        <lane id=":10_1_0" index="0" speed="13.89" length="4.46" shape="1101.65,993.50 1104.95,996.50"/>
    </edge>
    <edge id=":10_2" function="internal">
        <lane id=":10_2_0" index="0" speed="13.89" length="3.00" shape="1101.65,993.50 1101.65,996.50"/>
    </edge>
    <edge id=":11_0" function="internal">
        <lane id=":11_0_0" index="0" speed="13.89" length="4.46" shape="1098.35,1206.50 1095.05,1203.50"/>
    </edge>
    <edge id=":11_1" function="internal">
        <lane id=":11_1_0" index="0" speed="13.89" length="3.00" shape="1098.35,1206.50 1098.35,1203.50"/>
    </edge>
    <edge id=":11_2" function="internal">
        <lane id=":11_2_0" index="0" speed="13.89" length="3.00" shape="1101.65,1203.50 1101.65,1206.50"/>
    </edge>
    <edge id=":12_0" function="internal">
        <lane id=":12_0_0" index="0" speed="13.89" length="0.10" shape="1098.35,2100.00 1098.35,2100.00"/>
    </edge>
    <edge id=":12_1" function="internal">
        <lane id=":12_1_0" index="0" speed="13.89" length="0.10" shape="1101.65,2100.00 1101.65,2100.00"/>
    </edge>
    <edge id=":13_0" function="internal">
        <lane id=":13_0_0" index="0" speed="13.89" length="0.10" shape="1398.35,100.00 1398.35,100.00"/>
    </edge>
    <edge id=":13_1" function="internal">
        <lane id=":13_1_0" index="0" speed="13.89" length="0.10" shape="1401.65,100.00 1401.65,100.00"/>
    </edge>
    <edge id=":14_0" function="internal">
        <lane id=":14_0_0" index="0" speed="13.89" length="3.00" shape="1398.35,996.50 1398.35,993.50"/>
    </edge>
    <edge id=":14_1" function="internal">
        <lane id=":14_1_0" index="0" speed="13.89" length="4.46" shape="1401.65,993.50 1404.95,996.50"/>
    </edge>
    <edge id=":14_2" function="internal">
        <lane id=":14_2_0" index="0" speed="13.89" length="3.00" shape="1401.65,993.50 1401.65,996.50"/>
    </edge>
    <edge id=":15_0" function="internal">
        <lane id=":15_0_0" index="0" speed="13.89" length="4.46" shape="1398.35,1206.50 1395.05,1203.50"/>
    </edge>
    <edge id=":15_1" function="internal">
        <lane id=":15_1_0" index="0" speed="13.89" length="3.00" shape="1398.35,1206.50 1398.35,1203.50"/>
    </edge>
    <edge id=":15_2" function="internal">
        <lane id=":15_2_0" index="0" speed="13.89" length="3.00" shape="1401.65,1203.50 1401.65,1206.50"/>
    </edge>
    <edge id=":16_0" function="internal">
        <lane id=":16_0_0" index="0" speed="13.89" length="0.10" shape="1398.35,2100.01 1398.35,2100.00"/>
    </edge>
    <edge id=":16_1" function="internal">
        <lane id=":16_1_0" index="0" speed="13.89" length="0.10" shape="1401.65,2100.00 1401.65,2099.99"/>
    </edge>
    <edge id=":2_0" function="internal">
        <lane id=":2_0_0" index="0" speed="13.89" length="3.00" shape="996.50,1101.65 993.50,1101.65"/>
    </edge>
    <edge id=":2_1" function="internal">
        <lane id=":2_1_0" index="0" speed="13.89" length="4.46" shape="993.50,1098.35 996.50,1095.05"/>
    </edge>
    <edge id=":2_2" function="internal">
        <lane id=":2_2_0" index="0" speed="13.89" length="3.00" shape="993.50,1098.35 996.50,1098.35"/>
    </edge>
    <edge id=":3_0" function="internal">
        <lane id=":3_0_0" index="0" speed="13.89" length="23.04" shape="1095.05,1127.28 1094.85,1117.51 1094.26,1110.53 1093.27,1106.35 1091.88,1104.95"/>
    </edge>
    <edge id=":3_1" function="internal">
        <lane id=":3_1_0" index="0" speed="13.89" length="26.42" shape="1095.05,1127.28 1094.83,1116.06 1094.16,1108.06 1093.05,1103.25 1091.49,1101.65"/>
    </edge>
    <edge id=":3_2" function="internal">
        <lane id=":3_2_0" index="0" speed="13.89" length="33.97" shape="1095.05,1127.28 1095.05,1119.15 1095.05,1110.29 1095.05,1101.42 1095.05,1093.30"/>
    </edge>
    <edge id=":3_3" function="internal">
        <lane id=":3_3_0" index="0" speed="13.89" length="34.55" shape="1095.05,1127.28 1095.57,1119.09 1096.70,1110.09 1097.83,1101.09 1098.35,1092.90"/>
    </edge>
    <edge id=":3_4" function="internal">
        <lane id=":3_4_0" index="0" speed="13.89" length="35.05" shape="1098.35,1127.28 1098.87,1113.18 1100.44,1103.11 1103.05,1097.06 1106.70,1095.05"/>
    </edge>
    <edge id=":3_5" function="internal">
        <lane id=":3_5_0" index="0" speed="13.89" length="32.19" shape="1098.35,1127.28 1098.90,1114.62 1100.55,1105.58 1103.30,1100.16 1107.15,1098.35"/>
    </edge>
    <edge id=":3_6" function="internal">
        <lane id=":3_6_0" index="0" speed="13.89" length="16.27" shape="1107.93,1104.04 1103.16,1103.34 1099.85,1103.11 1096.55,1103.35 1091.78,1104.05"/>
    </edge>
    <edge id=":3_7" function="internal">
        <lane id=":3_7_0" index="0" speed="13.89" length="23.67" shape="1107.77,1102.91 1108.21,1104.43 1108.63,1108.87 1109.01,1116.22 1109.37,1126.48"/>
    </edge>
    <edge id=":3_8" function="internal">
        <lane id=":3_8_0" index="0" speed="13.89" length="23.90" shape="1107.77,1102.91 1107.73,1104.39 1107.80,1108.86 1107.98,1116.33 1108.27,1126.80"/>
    </edge>
    <edge id=":3_9" function="internal">
        <lane id=":3_9_0" index="0" speed="13.89" length="16.25" shape="1107.77,1102.91 1103.01,1102.21 1099.71,1102.00 1096.41,1102.25 1091.65,1102.96"/>
    </edge>
    <edge id=":3_10" function="internal">
        <lane id=":3_10_0" index="0" speed="13.89" length="16.42" shape="1107.77,1102.91 1102.97,1102.03 1099.65,1101.44 1096.32,1101.33 1091.52,1101.87"/>
    </edge>
    <edge id=":3_11" function="internal">
        <lane id=":3_11_0" index="0" speed="13.89" length="14.56" shape="1107.62,1101.77 1103.51,1100.67 1100.42,1098.85 1098.34,1096.30 1097.29,1093.03"/>
    </edge>
    <edge id=":3_12" function="internal">
        <lane id=":3_12_0" index="0" speed="13.89" length="13.81" shape="1107.62,1101.77 1104.00,1100.73 1101.26,1098.91 1099.39,1096.30 1098.39,1092.90"/>
    </edge>
    <edge id=":3_13" function="internal">
        <lane id=":3_13_0" index="0" speed="13.89" length="23.01" shape="1108.05,1104.95 1106.69,1106.35 1105.73,1110.53 1105.14,1117.51 1104.95,1127.28"/>
    </edge>
    <edge id=":3_14" function="internal">
        <lane id=":3_14_0" index="0" speed="13.89" length="24.62" shape="1108.05,1104.95 1105.25,1106.35 1103.25,1110.53 1102.05,1117.51 1101.65,1127.28"/>
    </edge>
    <edge id=":3_15" function="internal">
        <lane id=":3_15_0" index="0" speed="13.89" length="16.17" shape="1108.05,1104.95 1103.25,1104.95 1099.97,1104.95 1096.68,1104.95 1091.88,1104.95"/>
    </edge>
    <edge id=":3_16" function="internal">
        <lane id=":3_16_0" index="0" speed="13.89" length="16.99" shape="1108.05,1104.95 1103.09,1104.43 1099.77,1103.30 1096.45,1102.17 1091.49,1101.65"/>
    </edge>
    <edge id=":3_17" function="internal">
        <lane id=":3_17_0" index="0" speed="13.89" length="16.99" shape="1107.60,1101.65 1102.11,1101.13 1098.19,1099.56 1095.83,1096.96 1095.05,1093.30"/>
    </edge>
    <edge id=":3_18" function="internal">
        <lane id=":3_18_0" index="0" speed="13.89" length="14.51" shape="1107.60,1101.65 1103.55,1101.10 1100.66,1099.46 1098.93,1096.73 1098.35,1092.90"/>
    </edge>
    <edge id=":3_19" function="internal">
        <lane id=":3_19_0" index="0" speed="13.89" length="34.86" shape="1103.87,1092.24 1103.96,1101.70 1106.22,1109.15 1108.95,1116.62 1110.46,1126.16"/>
    </edge>
    <edge id=":3_20" function="internal">
        <lane id=":3_20_0" index="0" speed="13.89" length="7.92" shape="1102.74,1092.37 1102.71,1094.78 1103.41,1096.37 1104.83,1097.15 1106.98,1097.12"/>
    </edge>
    <edge id=":3_21" function="internal">
        <lane id=":3_21_0" index="0" speed="13.89" length="9.03" shape="1102.74,1092.37 1102.66,1095.27 1103.36,1097.21 1104.85,1098.19 1107.13,1098.21"/>
    </edge>
    <edge id=":3_22" function="internal">
        <lane id=":3_22_0" index="0" speed="13.89" length="35.04" shape="1102.74,1092.37 1102.83,1101.86 1105.10,1109.37 1107.85,1116.91 1109.37,1126.48"/>
    </edge>
    <edge id=":3_23" function="internal">
        <lane id=":3_23_0" index="0" speed="13.89" length="35.11" shape="1102.74,1092.37 1102.66,1101.91 1104.56,1109.53 1106.93,1117.18 1108.27,1126.80"/>
    </edge>
    <edge id=":3_24" function="internal">
        <lane id=":3_24_0" index="0" speed="13.89" length="15.61" shape="1101.61,1092.51 1100.51,1096.58 1098.48,1099.68 1095.52,1101.80 1091.65,1102.96"/>
    </edge>
    <edge id=":3_25" function="internal">
        <lane id=":3_25_0" index="0" speed="13.89" length="14.87" shape="1101.61,1092.51 1100.56,1096.08 1098.53,1098.84 1095.51,1100.76 1091.52,1101.87"/>
    </edge>
    <edge id=":3_26" function="internal">
        <lane id=":3_26_0" index="0" speed="13.89" length="3.83" shape="1104.95,1092.11 1105.06,1093.39 1105.39,1094.31 1105.93,1094.87 1106.70,1095.05"/>
    </edge>
    <edge id=":3_27" function="internal">
        <lane id=":3_27_0" index="0" speed="13.89" length="7.13" shape="1104.95,1092.11 1105.09,1094.84 1105.50,1096.79 1106.19,1097.96 1107.15,1098.35"/>
    </edge>
    <edge id=":3_28" function="internal">
        <lane id=":3_28_0" index="0" speed="13.89" length="35.17" shape="1104.95,1092.11 1104.95,1100.41 1104.95,1109.69 1104.95,1118.97 1104.95,1127.28"/>
    </edge>
    <edge id=":3_29" function="internal">
        <lane id=":3_29_0" index="0" speed="13.89" length="35.34" shape="1104.95,1092.11 1104.43,1100.41 1103.30,1109.69 1102.17,1118.97 1101.65,1127.28"/>
    </edge>
    <edge id=":3_30" function="internal">
        <lane id=":3_30_0" index="0" speed="13.89" length="17.96" shape="1101.65,1092.51 1101.04,1097.95 1099.21,1101.84 1096.16,1104.17 1091.88,1104.95"/>
    </edge>
    <edge id=":3_31" function="internal">
        <lane id=":3_31_0" index="0" speed="13.89" length="15.58" shape="1101.65,1092.51 1101.01,1096.51 1099.11,1099.36 1095.93,1101.08 1091.49,1101.65"/>
    </edge>
    <edge id=":3_32" function="internal">
        <lane id=":3_32_0" index="0" speed="13.89" length="16.16" shape="1090.80,1095.86 1095.54,1096.57 1098.83,1096.90 1102.11,1096.74 1106.83,1096.03"/>
    </edge>
    <edge id=":3_33" function="internal">
        <lane id=":3_33_0" index="0" speed="13.89" length="9.12" shape="1090.93,1096.99 1093.99,1097.14 1096.08,1096.53 1097.18,1095.16 1097.29,1093.03"/>
    </edge>
    <edge id=":3_34" function="internal">
        <lane id=":3_34_0" index="0" speed="13.89" length="10.25" shape="1090.93,1096.99 1094.49,1097.19 1096.92,1096.58 1098.22,1095.15 1098.39,1092.90"/>
    </edge>
    <edge id=":3_35" function="internal">
        <lane id=":3_35_0" index="0" speed="13.89" length="16.18" shape="1090.93,1096.99 1095.68,1097.70 1098.97,1098.01 1102.25,1097.84 1106.98,1097.12"/>
    </edge>
    <edge id=":3_36" function="internal">
        <lane id=":3_36_0" index="0" speed="13.89" length="16.39" shape="1090.93,1096.99 1095.73,1097.88 1099.04,1098.57 1102.35,1098.77 1107.13,1098.21"/>
    </edge>
    <edge id=":3_37" function="internal">
        <lane id=":3_37_0" index="0" speed="13.89" length="36.92" shape="1091.07,1098.12 1098.79,1100.87 1104.42,1106.51 1107.94,1115.05 1109.37,1126.48"/>
    </edge>
    <edge id=":3_38" function="internal">
        <lane id=":3_38_0" index="0" speed="13.89" length="36.47" shape="1091.07,1098.12 1098.31,1100.83 1103.59,1106.51 1106.91,1115.16 1108.27,1126.80"/>
    </edge>
    <edge id=":3_39" function="internal">
        <lane id=":3_39_0" index="0" speed="13.89" length="5.10" shape="1090.70,1095.05 1092.60,1094.94 1093.96,1094.61 1094.78,1094.07 1095.05,1093.30"/>
    </edge>
    <edge id=":3_40" function="internal">
        <lane id=":3_40_0" index="0" speed="13.89" length="8.41" shape="1090.70,1095.05 1094.05,1094.92 1096.44,1094.51 1097.87,1093.84 1098.35,1092.90"/>
    </edge>
    <edge id=":3_41" function="internal">
        <lane id=":3_41_0" index="0" speed="13.89" length="16.00" shape="1090.70,1095.05 1095.45,1095.05 1098.70,1095.05 1101.95,1095.05 1106.70,1095.05"/>
    </edge>
    <edge id=":3_42" function="internal">
        <lane id=":3_42_0" index="0" speed="13.89" length="16.88" shape="1090.70,1095.05 1095.63,1095.57 1098.92,1096.70 1102.22,1097.83 1107.15,1098.35"/>
    </edge>
    <edge id=":3_43" function="internal">
        <lane id=":3_43_0" index="0" speed="13.89" length="35.36" shape="1091.09,1098.35 1097.16,1100.16 1101.49,1105.58 1104.08,1114.62 1104.95,1127.28"/>
    </edge>
    <edge id=":3_44" function="internal">
        <lane id=":3_44_0" index="0" speed="13.89" length="33.23" shape="1091.09,1098.35 1095.71,1100.16 1099.01,1105.58 1100.99,1114.62 1101.65,1127.28"/>
    </edge>
    <edge id=":3_45" function="internal">
        <lane id=":3_45_0" index="0" speed="13.89" length="2.61" shape="1098.79,1092.85 1096.20,1093.16"/>
    </edge>
    <edge id=":3_46" function="internal">
        <lane id=":3_46_0" index="0" speed="13.89" length="14.02" shape="1099.95,1092.71 1098.65,1096.84 1096.83,1099.92 1094.49,1101.96 1091.65,1102.96"/>
    </edge>
    <edge id=":3_47" function="internal">
        <lane id=":3_47_0" index="0" speed="13.89" length="13.28" shape="1099.95,1092.71 1098.73,1096.33 1096.93,1099.07 1094.52,1100.91 1091.52,1101.87"/>
    </edge>
    <edge id=":3_48" function="internal">
        <lane id=":3_48_0" index="0" speed="13.89" length="2.67" shape="1099.95,1092.71 1097.29,1093.03"/>
    </edge>
    <edge id=":3_49" function="internal">
        <lane id=":3_49_0" index="0" speed="13.89" length="1.57" shape="1099.95,1092.71 1098.39,1092.90"/>
    </edge>
    <edge id=":3_50" function="internal">
        <lane id=":3_50_0" index="0" speed="13.89" length="35.11" shape="1093.79,1127.28 1095.03,1114.86 1097.65,1105.70 1101.63,1099.79 1106.98,1097.12"/>
    </edge>
    <edge id=":3_51" function="internal">
        <lane id=":3_51_0" index="0" speed="13.89" length="34.21" shape="1093.79,1127.28 1095.02,1115.35 1097.66,1106.54 1101.70,1100.82 1107.13,1098.21"/>
    </edge>
    <edge id=":4_0" function="internal">
        <lane id=":4_0_0" index="0" speed="13.89" length="4.46" shape="1206.50,1101.65 1203.50,1104.95"/>
    </edge>
    <edge id=":4_1" function="internal">
        <lane id=":4_1_0" index="0" speed="13.89" length="3.00" shape="1206.50,1101.65 1203.50,1101.65"/>
    </edge>
    <edge id=":4_2" function="internal">
        <lane id=":4_2_0" index="0" speed="13.89" length="3.00" shape="1203.50,1098.35 1206.50,1098.35"/>
    </edge>
    <edge id=":5_0" function="internal">
        <lane id=":5_0_0" index="0" speed="13.89" length="3.00" shape="1296.50,1101.65 1293.50,1101.65"/>
    </edge>
    <edge id=":5_1" function="internal">
        <lane id=":5_1_0" index="0" speed="13.89" length="4.46" shape="1293.50,1098.35 1296.50,1095.05"/>
    </edge>
    <edge id=":5_2" function="internal">
        <lane id=":5_2_0" index="0" speed="13.89" length="3.00" shape="1293.50,1098.35 1296.50,1098.35"/>
    </edge>
    <edge id=":6_0" function="internal">
        <lane id=":6_0_0" index="0" speed="13.89" length="39.41" shape="1395.05,1143.91 1394.85,1126.87 1394.26,1114.69 1393.27,1107.39 1391.88,1104.95"/>
    </edge>
    <edge id=":6_1" function="internal">
        <lane id=":6_1_0" index="0" speed="13.89" length="42.78" shape="1395.05,1143.91 1394.83,1125.42 1394.16,1112.22 1393.04,1104.29 1391.48,1101.65"/>
    </edge>
    <edge id=":6_2" function="internal">
        <lane id=":6_2_0" index="0" speed="13.89" length="50.59" shape="1395.05,1143.91 1395.05,1133.19 1395.05,1118.62 1395.05,1104.04 1395.05,1093.32"/>
    </edge>
    <edge id=":6_3" function="internal">
        <lane id=":6_3_0" index="0" speed="13.89" length="51.02" shape="1395.05,1143.91 1395.57,1133.14 1396.70,1118.46 1397.83,1103.77 1398.35,1093.00"/>
    </edge>
    <edge id=":6_4" function="internal">
        <lane id=":6_4_0" index="0" speed="13.89" length="50.92" shape="1398.35,1143.91 1398.86,1122.53 1400.38,1107.27 1402.92,1098.10 1406.47,1095.05"/>
    </edge>
    <edge id=":6_5" function="internal">
        <lane id=":6_5_0" index="0" speed="13.89" length="47.85" shape="1398.35,1143.91 1398.88,1123.98 1400.45,1109.74 1403.08,1101.20 1406.76,1098.35"/>
    </edge>
    <edge id=":6_6" function="internal">
        <lane id=":6_6_0" index="0" speed="13.89" length="15.52" shape="1407.21,1103.51 1402.63,1103.09 1399.47,1103.05 1396.33,1103.37 1391.78,1104.08"/>
    </edge>
    <edge id=":6_7" function="internal">
        <lane id=":6_7_0" index="0" speed="13.89" length="40.99" shape="1407.11,1102.39 1407.50,1104.97 1407.99,1112.66 1408.59,1125.43 1409.28,1143.31"/>
    </edge>
    <edge id=":6_8" function="internal">
        <lane id=":6_8_0" index="0" speed="13.89" length="41.18" shape="1407.11,1102.39 1407.02,1104.95 1407.17,1112.66 1407.56,1125.53 1408.19,1143.55"/>
    </edge>
    <edge id=":6_9" function="internal">
        <lane id=":6_9_0" index="0" speed="13.89" length="15.56" shape="1407.11,1102.39 1402.52,1101.98 1399.36,1101.94 1396.20,1102.27 1391.64,1102.98"/>
    </edge>
    <edge id=":6_10" function="internal">
        <lane id=":6_10_0" index="0" speed="13.89" length="15.70" shape="1407.11,1102.39 1402.48,1101.81 1399.29,1101.39 1396.11,1101.35 1391.51,1101.89"/>
    </edge>
    <edge id=":6_11" function="internal">
        <lane id=":6_11_0" index="0" speed="13.89" length="13.69" shape="1407.01,1101.28 1403.18,1100.43 1400.33,1098.78 1398.44,1096.33 1397.53,1093.08"/>
    </edge>
    <edge id=":6_12" function="internal">
        <lane id=":6_12_0" index="0" speed="13.89" length="12.90" shape="1407.01,1101.28 1403.67,1100.47 1401.16,1098.81 1399.48,1096.32 1398.63,1092.97"/>
    </edge>
    <edge id=":6_13" function="internal">
        <lane id=":6_13_0" index="0" speed="13.89" length="39.22" shape="1407.34,1104.95 1406.29,1107.39 1405.55,1114.69 1405.10,1126.87 1404.95,1143.91"/>
    </edge>
    <edge id=":6_14" function="internal">
        <lane id=":6_14_0" index="0" speed="13.89" length="40.27" shape="1407.34,1104.95 1404.85,1107.39 1403.07,1114.69 1402.01,1126.87 1401.65,1143.91"/>
    </edge>
    <edge id=":6_15" function="internal">
        <lane id=":6_15_0" index="0" speed="13.89" length="15.46" shape="1407.34,1104.95 1402.75,1104.95 1399.61,1104.95 1396.47,1104.95 1391.88,1104.95"/>
    </edge>
    <edge id=":6_16" function="internal">
        <lane id=":6_16_0" index="0" speed="13.89" length="16.30" shape="1407.34,1104.95 1402.58,1104.43 1399.41,1103.30 1396.24,1102.17 1391.48,1101.65"/>
    </edge>
    <edge id=":6_17" function="internal">
        <lane id=":6_17_0" index="0" speed="13.89" length="16.50" shape="1407.05,1101.65 1401.80,1101.13 1398.05,1099.57 1395.80,1096.97 1395.05,1093.32"/>
    </edge>
    <edge id=":6_18" function="internal">
        <lane id=":6_18_0" index="0" speed="13.89" length="13.99" shape="1407.05,1101.65 1403.24,1101.11 1400.52,1099.49 1398.89,1096.78 1398.35,1093.00"/>
    </edge>
    <edge id=":6_19" function="internal">
        <lane id=":6_19_0" index="0" speed="13.89" length="51.15" shape="1403.67,1092.48 1403.89,1104.56 1406.15,1117.74 1408.85,1130.93 1410.38,1143.07"/>
    </edge>
    <edge id=":6_20" function="internal">
        <lane id=":6_20_0" index="0" speed="13.89" length="7.89" shape="1402.55,1092.59 1402.56,1094.99 1403.25,1096.64 1404.63,1097.52 1406.69,1097.66"/>
    </edge>
    <edge id=":6_21" function="internal">
        <lane id=":6_21_0" index="0" speed="13.89" length="8.96" shape="1402.55,1092.59 1402.52,1095.48 1403.21,1097.47 1404.64,1098.56 1406.79,1098.75"/>
    </edge>
    <edge id=":6_22" function="internal">
        <lane id=":6_22_0" index="0" speed="13.89" length="51.28" shape="1402.55,1092.59 1402.77,1104.69 1405.04,1117.91 1407.75,1131.15 1409.28,1143.31"/>
    </edge>
    <edge id=":6_23" function="internal">
        <lane id=":6_23_0" index="0" speed="13.89" length="51.37" shape="1402.55,1092.59 1402.60,1104.73 1404.50,1118.03 1406.83,1131.36 1408.19,1143.55"/>
    </edge>
    <edge id=":6_24" function="internal">
        <lane id=":6_24_0" index="0" speed="13.89" length="15.38" shape="1401.43,1092.70 1400.42,1096.69 1398.45,1099.73 1395.52,1101.83 1391.64,1102.98"/>
    </edge>
    <edge id=":6_25" function="internal">
        <lane id=":6_25_0" index="0" speed="13.89" length="14.64" shape="1401.43,1092.70 1400.46,1096.19 1398.48,1098.89 1395.50,1100.79 1391.51,1101.89"/>
    </edge>
    <edge id=":6_26" function="internal">
        <lane id=":6_26_0" index="0" speed="13.89" length="3.45" shape="1404.95,1092.36 1405.04,1093.54 1405.33,1094.38 1405.80,1094.88 1406.47,1095.05"/>
    </edge>
    <edge id=":6_27" function="internal">
        <lane id=":6_27_0" index="0" speed="13.89" length="6.66" shape="1404.95,1092.36 1405.06,1094.98 1405.40,1096.85 1405.97,1097.98 1406.76,1098.35"/>
    </edge>
    <edge id=":6_28" function="internal">
        <lane id=":6_28_0" index="0" speed="13.89" length="51.55" shape="1404.95,1092.36 1404.95,1103.22 1404.95,1118.13 1404.95,1133.04 1404.95,1143.91"/>
    </edge>
    <edge id=":6_29" function="internal">
        <lane id=":6_29_0" index="0" speed="13.89" length="51.66" shape="1404.95,1092.36 1404.43,1103.22 1403.30,1118.13 1402.17,1133.04 1401.65,1143.91"/>
    </edge>
    <edge id=":6_30" function="internal">
        <lane id=":6_30_0" index="0" speed="13.89" length="17.82" shape="1401.65,1092.68 1401.04,1098.05 1399.21,1101.88 1396.16,1104.18 1391.88,1104.95"/>
    </edge>
    <edge id=":6_31" function="internal">
        <lane id=":6_31_0" index="0" speed="13.89" length="15.44" shape="1401.65,1092.68 1401.01,1096.60 1399.11,1099.41 1395.93,1101.09 1391.48,1101.65"/>
    </edge>
    <edge id=":6_32" function="internal">
        <lane id=":6_32_0" index="0" speed="13.89" length="15.92" shape="1390.78,1095.80 1395.44,1096.54 1398.67,1096.93 1401.90,1096.95 1406.60,1096.56"/>
    </edge>
    <edge id=":6_33" function="internal">
        <lane id=":6_33_0" index="0" speed="13.89" length="9.22" shape="1390.91,1096.93 1394.03,1097.11 1396.17,1096.52 1397.34,1095.18 1397.53,1093.08"/>
    </edge>
    <edge id=":6_34" function="internal">
        <lane id=":6_34_0" index="0" speed="13.89" length="10.35" shape="1390.91,1096.93 1394.52,1097.16 1397.00,1096.58 1398.37,1095.19 1398.63,1092.97"/>
    </edge>
    <edge id=":6_35" function="internal">
        <lane id=":6_35_0" index="0" speed="13.89" length="15.88" shape="1390.91,1096.93 1395.57,1097.67 1398.79,1098.05 1402.01,1098.05 1406.69,1097.66"/>
    </edge>
    <edge id=":6_36" function="internal">
        <lane id=":6_36_0" index="0" speed="13.89" length="16.08" shape="1390.91,1096.93 1395.61,1097.84 1398.83,1098.60 1402.07,1098.98 1406.79,1098.75"/>
    </edge>
    <edge id=":6_37" function="internal">
        <lane id=":6_37_0" index="0" speed="13.89" length="51.88" shape="1391.05,1098.07 1398.44,1101.86 1403.94,1110.66 1407.56,1124.48 1409.28,1143.31"/>
    </edge>
    <edge id=":6_38" function="internal">
        <lane id=":6_38_0" index="0" speed="13.89" length="51.48" shape="1391.05,1098.07 1397.96,1101.81 1403.12,1110.63 1406.53,1124.55 1408.19,1143.55"/>
    </edge>
    <edge id=":6_39" function="internal">
        <lane id=":6_39_0" index="0" speed="13.89" length="5.10" shape="1390.69,1095.05 1392.60,1094.94 1393.96,1094.62 1394.78,1094.08 1395.05,1093.32"/>
    </edge>
    <edge id=":6_40" function="internal">
        <lane id=":6_40_0" index="0" speed="13.89" length="8.37" shape="1390.69,1095.05 1394.04,1094.92 1396.43,1094.54 1397.87,1093.90 1398.35,1093.00"/>
    </edge>
    <edge id=":6_41" function="internal">
        <lane id=":6_41_0" index="0" speed="13.89" length="15.78" shape="1390.69,1095.05 1395.37,1095.05 1398.58,1095.05 1401.78,1095.05 1406.47,1095.05"/>
    </edge>
    <edge id=":6_42" function="internal">
        <lane id=":6_42_0" index="0" speed="13.89" length="16.51" shape="1390.69,1095.05 1395.50,1095.57 1398.72,1096.70 1401.94,1097.83 1406.76,1098.35"/>
    </edge>
    <edge id=":6_43" function="internal">
        <lane id=":6_43_0" index="0" speed="13.89" length="50.70" shape="1391.09,1098.35 1397.15,1101.20 1401.48,1109.74 1404.08,1123.98 1404.95,1143.91"/>
    </edge>
    <edge id=":6_44" function="internal">
        <lane id=":6_44_0" index="0" speed="13.89" length="48.91" shape="1391.09,1098.35 1395.71,1101.20 1399.01,1109.74 1400.99,1123.98 1401.65,1143.91"/>
    </edge>
    <edge id=":6_45" function="internal">
        <lane id=":6_45_0" index="0" speed="13.89" length="2.06" shape="1398.48,1092.99 1396.44,1093.19"/>
    </edge>
    <edge id=":6_46" function="internal">
        <lane id=":6_46_0" index="0" speed="13.89" length="13.77" shape="1399.62,1092.88 1398.50,1096.93 1396.80,1099.96 1394.51,1101.98 1391.64,1102.98"/>
    </edge>
    <edge id=":6_47" function="internal">
        <lane id=":6_47_0" index="0" speed="13.89" length="13.01" shape="1399.62,1092.88 1398.57,1096.43 1396.87,1099.11 1394.52,1100.94 1391.51,1101.89"/>
    </edge>
    <edge id=":6_48" function="internal">
        <lane id=":6_48_0" index="0" speed="13.89" length="2.10" shape="1399.62,1092.88 1397.53,1093.08"/>
    </edge>
    <edge id=":6_49" function="internal">
        <lane id=":6_49_0" index="0" speed="13.89" length="1.00" shape="1399.62,1092.88 1398.63,1092.97"/>
    </edge>
    <edge id=":6_50" function="internal">
        <lane id=":6_50_0" index="0" speed="13.89" length="9.43" shape="1400.76,1092.76 1400.75,1095.17 1401.73,1096.79 1403.72,1097.62 1406.69,1097.66"/>
    </edge>
    <edge id=":6_51" function="internal">
        <lane id=":6_51_0" index="0" speed="13.89" length="10.48" shape="1400.76,1092.76 1400.68,1095.66 1401.66,1097.63 1403.69,1098.66 1406.79,1098.75"/>
    </edge>
    <edge id=":7_0" function="internal">
        <lane id=":7_0_0" index="0" speed="13.89" length="4.46" shape="1506.50,1101.65 1503.50,1104.95"/>
    </edge>
    <edge id=":7_1" function="internal">
        <lane id=":7_1_0" index="0" speed="13.89" length="3.00" shape="1506.50,1101.65 1503.50,1101.65"/>
    </edge>
    <edge id=":7_2" function="internal">
        <lane id=":7_2_0" index="0" speed="13.89" length="3.00" shape="1503.50,1098.35 1506.50,1098.35"/>
    </edge>
    <edge id=":8_0" function="internal">
        <lane id=":8_0_0" index="0" speed="13.89" length="0.10" shape="2400.00,1101.65 2400.00,1101.65"/>
    </edge>
    <edge id=":8_1" function="internal">
        <lane id=":8_1_0" index="0" speed="13.89" length="0.10" shape="2400.00,1098.35 2400.00,1098.35"/>
    </edge>
    <edge id=":9_0" function="internal">
        <lane id=":9_0_0" index="0" speed="13.89" length="0.10" shape="1098.35,100.00 1098.35,100.01"/>
    </edge>
    <edge id=":9_1" function="internal">
        <lane id=":9_1_0" index="0" speed="13.89" length="0.10" shape="1101.65,100.00 1101.65,100.00"/>
    </edge>
    <edge id=":a_0" function="internal">
        <lane id=":a_0_0" index="0" speed="13.89" length="34.41" shape="16.24,1107.31 4.00,1103.39 -0.10,1100.59 3.95,1098.91 16.14,1098.35"/>
    </edge>
    <edge id=":a_1" function="internal">
        <lane id=":a_1_0" index="0" speed="13.89" length="25.79" shape="16.53,1106.25 7.98,1103.15 4.89,1100.05 7.25,1096.94 15.07,1093.84"/>
    </edge>
    <edge id=":a_2" function="internal">
        <lane id=":a_2_0" index="0" speed="13.89" length="21.37" shape="16.82,1105.19 9.67,1102.61 7.03,1100.03 8.92,1097.47 15.32,1094.91"/>
    </edge>
    <edge id=":a_3" function="internal">
        <lane id=":a_3_0" index="0" speed="13.89" length="33.15" shape="16.92,1101.65 4.70,1101.09 0.28,1099.43 3.65,1096.65 14.81,1092.76"/>
    </edge>
    <edge id=":a_4" function="internal">
        <lane id=":a_4_0" index="0" speed="13.89" length="4.95" shape="16.92,1101.65 15.49,1101.12 14.88,1100.39 15.10,1099.47 16.14,1098.35"/>
    </edge>
    <edge id=":b_0" function="internal">
        <lane id=":b_0_0" index="0" speed="13.89" length="41.58" shape="2500.00,1097.23 2515.45,1099.17 2520.61,1100.55 2515.45,1101.37 2500.00,1101.65"/>
    </edge>
    <edge id=":b_1" function="internal">
        <lane id=":b_1_0" index="0" speed="13.89" length="4.85" shape="2500.00,1098.34 2501.24,1099.17 2501.66,1100.00 2501.24,1100.83 2500.00,1101.66"/>
    </edge>
    <edge id=":b_2" function="internal">
        <lane id=":b_2_0" index="0" speed="13.89" length="1.64" shape="2499.94,1099.44 2500.36,1099.72 2500.50,1100.00 2500.36,1100.28 2499.94,1100.56"/>
    </edge>
    <edge id=":b_3" function="internal">