<routes>
        
    <vType id="Raleigh" accel="0.8" decel="1.5" sigma="0.5" length="1.6" maxSpeed="5.8" color="255,255,0" guiShape="bicycle" vClass="bicycle" emissionClass="zero"/>  

    <!-- ========================================== -->
    <!-- HORIZONTAL BICYCLE: West to East          -->
    <!-- ========================================== -->
    
    <!-- From a to exits -->
    <route id="ab" edges="a_3 3_6 6_17 17_18 18_19 19_b"/>
    <route id="ac" edges="a_3 3_c"/>
    <route id="ad" edges="a_3 3_d"/>
    <route id="ae" edges="a_3 3_6 6_e"/>
    <route id="af" edges="a_3 3_6 6_f"/>
    <route id="ag" edges="a_3 3_6 6_17 17_g"/>
    <route id="ah" edges="a_3 3_6 6_17 17_h"/>
    <route id="ai" edges="a_3 3_6 6_17 17_18 18_i"/>
    <route id="aj" edges="a_3 3_6 6_17 17_18 18_j"/>
    <route id="ak" edges="a_3 3_6 6_17 17_18 18_19 19_k"/>
    <route id="al" edges="a_3 3_6 6_17 17_18 18_19 19_l"/>

    <!-- ========================================== -->
    <!-- HORIZONTAL BICYCLE: East to West          -->
    <!-- ========================================== -->
    
    <!-- From b to exits -->
    <route id="ba" edges="b_19 19_18 18_17 17_6 6_3 3_a"/>
    <route id="bk" edges="b_19 19_k"/>
    <route id="bl" edges="b_19 19_l"/>
    <route id="bi" edges="b_19 19_18 18_i"/>
    <route id="bj" edges="b_19 19_18 18_j"/>
    <route id="bg" edges="b_19 19_18 18_17 17_g"/>
    <route id="bh" edges="b_19 19_18 18_17 17_h"/>
    <route id="be" edges="b_19 19_18 18_17 17_6 6_e"/>
    <route id="bf" edges="b_19 19_18 18_17 17_6 6_f"/>
    <route id="bc" edges="b_19 19_18 18_17 17_6 6_3 3_c"/>
    <route id="bd" edges="b_19 19_18 18_17 17_6 6_3 3_d"/>

    <!-- ========================================== -->
    <!-- VERTICAL BICYCLE @ TLS-1                  -->
    <!-- ========================================== -->
    
    <route id="cd" edges="c_3 3_d"/>
    <route id="ca" edges="c_3 3_a"/>
    <route id="cb" edges="c_3 3_6 6_17 17_18 18_19 19_b"/>
    
    <route id="dc" edges="d_3 3_c"/>
    <route id="da" edges="d_3 3_a"/>
    <route id="db" edges="d_3 3_6 6_17 17_18 18_19 19_b"/>

    <!-- ========================================== -->
    <!-- VERTICAL BICYCLE @ TLS-2                  -->
    <!-- ========================================== -->
    
    <route id="ef" edges="e_6 6_f"/>
    <route id="ea" edges="e_6 6_3 3_a"/>
    <route id="eb" edges="e_6 6_17 17_18 18_19 19_b"/>
    
    <route id="fe" edges="f_6 6_e"/>
    <route id="fa" edges="f_6 6_3 3_a"/>
    <route id="fb" edges="f_6 6_17 17_18 18_19 19_b"/>

    <!-- ========================================== -->
    <!-- VERTICAL BICYCLE @ TLS-3                  -->
    <!-- ========================================== -->
    
    <route id="gh" edges="g_17 17_h"/>
    <route id="ga" edges="g_17 17_6 6_3 3_a"/>
    <route id="gb" edges="g_17 17_18 18_19 19_b"/>
    
    <route id="hg" edges="h_17 17_g"/>
    <route id="ha" edges="h_17 17_6 6_3 3_a"/>
    <route id="hb" edges="h_17 17_18 18_19 19_b"/>

    <!-- ========================================== -->
    <!-- VERTICAL BICYCLE @ TLS-4                  -->
    <!-- ========================================== -->
    
    <route id="ij" edges="i_18 18_j"/>
    <route id="ia" edges="i_18 18_17 17_6 6_3 3_a"/>
    <route id="ib" edges="i_18 18_19 19_b"/>
    
    <route id="ji" edges="j_18 18_i"/>
    <route id="ja" edges="j_18 18_17 17_6 6_3 3_a"/>
    <route id="jb" edges="j_18 18_19 19_b"/>

    <!-- ========================================== -->
    <!-- VERTICAL BICYCLE @ TLS-5                  -->
    <!-- ========================================== -->
    
    <route id="kl" edges="k_19 19_l"/>
    <route id="ka" edges="k_19 19_18 18_17 17_6 6_3 3_a"/>
    <route id="kb" edges="k_19 19_b"/>
    
    <route id="lk" edges="l_19 19_k"/>
    <route id="la" edges="l_19 19_18 18_17 17_6 6_3 3_a"/>
    <route id="lb" edges="l_19 19_b"/>

        
    <vehicle id="400000" type="Raleigh" route="ac" depart="0" departLane="free" departSpeed="random" />
    <vehicle id="400001" type="Raleigh" route="db" depart="5" departLane="free" departSpeed="random" />
    <vehicle id="400002" type="Raleigh" route="dc" depart="19" departLane="free" departSpeed="random" />
    <vehicle id="400003" type="Raleigh" route="ab" depart="29" departLane="free" departSpeed="random" />
    <vehicle id="400004" type="Raleigh" route="ji" depart="29" departLane="free" departSpeed="random" />
    <vehicle id="400005" type="Raleigh" route="fe" depart="31" departLane="free" departSpeed="random" />
    <vehicle id="400006" type="Raleigh" route="ab" depart="32" departLane="free" departSpeed="random" />
    <vehicle id="400007" type="Raleigh" route="ab" depart="33" departLane="free" departSpeed="random" />
    <vehicle id="400008" type="Raleigh" route="ji" depart="35" departLane="free" departSpeed="random" />
    <vehicle id="400009" type="Raleigh" route="ja" depart="35" departLane="free" departSpeed="random" />
    <vehicle id="400010" type="Raleigh" route="ij" depart="43" departLane="free" departSpeed="random" />
    <vehicle id="400011" type="Raleigh" route="db" depart="59" departLane="free" departSpeed="random" />
    <vehicle id="400012" type="Raleigh" route="hg" depart="69" departLane="free" departSpeed="random" />
    <vehicle id="400013" type="Raleigh" route="ad" depart="71" departLane="free" departSpeed="random" />
    <vehicle id="400014" type="Raleigh" route="ef" depart="71" departLane="free" departSpeed="random" />
    <vehicle id="400015" type="Raleigh" route="bk" depart="79" departLane="free" departSpeed="random" />
    <vehicle id="400016" type="Raleigh" route="ij" depart="79" departLane="free" departSpeed="random" />
    <vehicle id="400017" type="Raleigh" route="ba" depart="80" departLane="free" departSpeed="random" />
    <vehicle id="400018" type="Raleigh" route="ji" depart="96" departLane="free" departSpeed="random" />
    <vehicle id="400019" type="Raleigh" route="ab" depart="98" departLane="free" departSpeed="random" />
    <vehicle id="400020" type="Raleigh" route="ba" depart="100" departLane="free" departSpeed="random" />
    <vehicle id="400021" type="Raleigh" route="hg" depart="102" departLane="free" departSpeed="random" />
    <vehicle id="400022" type="Raleigh" route="ef" depart="107" departLane="free" departSpeed="random" />
    <vehicle id="400023" type="Raleigh" route="ba" depart="112" departLane="free" departSpeed="random" />
    <vehicle id="400024" type="Raleigh" route="kl" depart="119" departLane="free" departSpeed="random" />
    <vehicle id="400025" type="Raleigh" route="cd" depart="127" departLane="free" departSpeed="random" />
    <vehicle id="400026" type="Raleigh" route="ij" depart="135" departLane="free" departSpeed="random" />
    <vehicle id="400027" type="Raleigh" route="ba" depart="136" departLane="free" departSpeed="random" />
    <vehicle id="400028" type="Raleigh" route="cd" depart="138" departLane="free" departSpeed="random" />
    <vehicle id="400029" type="Raleigh" route="fe" depart="139" departLane="free" departSpeed="random" />
    <vehicle id="400030" type="Raleigh" route="bj" depart="141" departLane="free" departSpeed="random" />
    <vehicle id="400031" type="Raleigh" route="fe" depart="142" departLane="free" departSpeed="random" />
    <vehicle id="400032" type="Raleigh" route="hg" depart="144" departLane="free" departSpeed="random" />
    <vehicle id="400033" type="Raleigh" route="ab" depart="149" departLane="free" departSpeed="random" />
    <vehicle id="400034" type="Raleigh" route="cd" depart="165" departLane="free" departSpeed="random" />
    <vehicle id="400035" type="Raleigh" route="ba" depart="169" departLane="free" departSpeed="random" />
    <vehicle id="400036" type="Raleigh" route="dc" depart="179" departLane="free" departSpeed="random" />
    <vehicle id="400037" type="Raleigh" route="ef" depart="181" departLane="free" departSpeed="random" />
    <vehicle id="400038" type="Raleigh" route="cd" depart="184" departLane="free" departSpeed="random" />
    <vehicle id="400039" type="Raleigh" route="kl" depart="192" departLane="free" departSpeed="random" />
    <vehicle id="400040" type="Raleigh" route="dc" depart="194" departLane="free" departSpeed="random" />
    <vehicle id="400041" type="Raleigh" route="fe" depart="194" departLane="free" departSpeed="random" />
    <vehicle id="400042" type="Raleigh" route="ab" depart="195" departLane="free" departSpeed="random" />
    <vehicle id="400043" type="Raleigh" route="cd" depart="196" departLane="free" departSpeed="random" />
    <vehicle id="400044" type="Raleigh" route="lk" depart="207" departLane="free" departSpeed="random" />
    <vehicle id="400045" type="Raleigh" route="cd" depart="212" departLane="free" departSpeed="random" />
    <vehicle id="400046" type="Raleigh" route="hg" depart="216" departLane="free" departSpeed="random" />
    <vehicle id="400047" type="Raleigh" route="hg" depart="222" departLane="free" departSpeed="random" />
    <vehicle id="400048" type="Raleigh" route="ij" depart="224" departLane="free" departSpeed="random" />
    <vehicle id="400049" type="Raleigh" route="ef" depart="233" departLane="free" departSpeed="random" />
    <vehicle id="400050" type="Raleigh" route="ad" depart="242" departLane="free" departSpeed="random" />
    <vehicle id="400051" type="Raleigh" route="ba" depart="243" departLane="free" departSpeed="random" />
    <vehicle id="400052" type="Raleigh" route="bk" depart="243" departLane="free" departSpeed="random" />
    <vehicle id="400053" type="Raleigh" route="ji" depart="243" departLane="free" departSpeed="random" />
    <vehicle id="400054" type="Raleigh" route="gh" depart="248" departLane="free" departSpeed="random" />
    <vehicle id="400055" type="Raleigh" route="dc" depart="249" departLane="free" departSpeed="random" />
    <vehicle id="400056" type="Raleigh" route="ba" depart="254" departLane="free" departSpeed="random" />
    <vehicle id="400057" type="Raleigh" route="cb" depart="255" departLane="free" departSpeed="random" />
    <vehicle id="400058" type="Raleigh" route="ad" depart="257" departLane="free" departSpeed="random" />
    <vehicle id="400059" type="Raleigh" route="dc" depart="262" departLane="free" departSpeed="random" />
    <vehicle id="400060" type="Raleigh" route="ba" depart="265" departLane="free" departSpeed="random" />
    <vehicle id="400061" type="Raleigh" route="ef" depart="277" departLane="free" departSpeed="random" />
    <vehicle id="400062" type="Raleigh" route="ba" depart="279" departLane="free" departSpeed="random" />
    <vehicle id="400063" type="Raleigh" route="ba" depart="280" departLane="free" departSpeed="random" />
    <vehicle id="400064" type="Raleigh" route="ab" depart="281" departLane="free" departSpeed="random" />
    <vehicle id="400065" type="Raleigh" route="ab" depart="284" departLane="free" departSpeed="random" />
    <vehicle id="400066" type="Raleigh" route="ba" depart="284" departLane="free" departSpeed="random" />
    <vehicle id="400067" type="Raleigh" route="dc" depart="286" departLane="free" departSpeed="random" />
    <vehicle id="400068" type="Raleigh" route="ba" depart="288" departLane="free" departSpeed="random" />
    <vehicle id="400069" type="Raleigh" route="gh" depart="289" departLane="free" departSpeed="random" />
    <vehicle id="400070" type="Raleigh" route="ba" depart="316" departLane="free" departSpeed="random" />
    <vehicle id="400071" type="Raleigh" route="bk" depart="318" departLane="free" departSpeed="random" />
    <vehicle id="400072" type="Raleigh" route="fb" depart="324" departLane="free" departSpeed="random" />
    <vehicle id="400073" type="Raleigh" route="ji" depart="325" departLane="free" departSpeed="random" />
    <vehicle id="400074" type="Raleigh" route="ef" depart="334" departLane="free" departSpeed="random" />
    <vehicle id="400075" type="Raleigh" route="ji" depart="334" departLane="free" departSpeed="random" />
    <vehicle id="400076" type="Raleigh" route="fe" depart="335" departLane="free" departSpeed="random" />
    <vehicle id="400077" type="Raleigh" route="ab" depart="338" departLane="free" departSpeed="random" />
    <vehicle id="400078" type="Raleigh" route="ij" depart="338" departLane="free" departSpeed="random" />
    <vehicle id="400079" type="Raleigh" route="bk" depart="347" departLane="free" departSpeed="random" />
    <vehicle id="400080" type="Raleigh" route="ba" depart="348" departLane="free" departSpeed="random" />
    <vehicle id="400081" type="Raleigh" route="ji" depart="351" departLane="free" departSpeed="random" />
    <vehicle id="400082" type="Raleigh" route="ab" depart="355" departLane="free" departSpeed="random" />
    <vehicle id="400083" type="Raleigh" route="ef" depart="355" departLane="free" departSpeed="random" />
    <vehicle id="400084" type="Raleigh" route="ab" depart="356" departLane="free" departSpeed="random" />
    <vehicle id="400085" type="Raleigh" route="ef" depart="356" departLane="free" departSpeed="random" />
    <vehicle id="400086" type="Raleigh" route="ba" depart="359" departLane="free" departSpeed="random" />
    <vehicle id="400087" type="Raleigh" route="cd" depart="370" departLane="free" departSpeed="random" />
    <vehicle id="400088" type="Raleigh" route="cb" depart="373" departLane="free" departSpeed="random" />
    <vehicle id="400089" type="Raleigh" route="ba" depart="375" departLane="free" departSpeed="random" />
    <vehicle id="400090" type="Raleigh" route="ib" depart="375" departLane="free" departSpeed="random" />
    <vehicle id="400091" type="Raleigh" route="ab" depart="391" departLane="free" departSpeed="random" />
    <vehicle id="400092" type="Raleigh" route="ab" depart="394" departLane="free" departSpeed="random" />
    <vehicle id="400093" type="Raleigh" route="ab" depart="395" departLane="free" departSpeed="random" />
    <vehicle id="400094" type="Raleigh" route="ij" depart="396" departLane="free" departSpeed="random" />
    <vehicle id="400095" type="Raleigh" route="kl" depart="398" departLane="free" departSpeed="random" />
    <vehicle id="400096" type="Raleigh" route="cd" depart="399" departLane="free" departSpeed="random" />
    <vehicle id="400097" type="Raleigh" route="ag" depart="400" departLane="free" departSpeed="random" />
    <vehicle id="400098" type="Raleigh" route="kl" depart="400" departLane="free" departSpeed="random" />
    <vehicle id="400099" type="Raleigh" route="ab" depart="403" departLane="free" departSpeed="random" />
    <vehicle id="400100" type="Raleigh" route="ab" depart="405" departLane="free" departSpeed="random" />
    <vehicle id="400101" type="Raleigh" route="ef" depart="412" departLane="free" departSpeed="random" />
    <vehicle id="400102" type="Raleigh" route="lb" depart="413" departLane="free" departSpeed="random" />
    <vehicle id="400103" type="Raleigh" route="fa" depart="424" departLane="free" departSpeed="random" />
    <vehicle id="400104" type="Raleigh" route="ef" depart="432" departLane="free" departSpeed="random" />
    <vehicle id="400105" type="Raleigh" route="ij" depart="433" departLane="free" departSpeed="random" />
    <vehicle id="400106" type="Raleigh" route="ef" depart="435" departLane="free" departSpeed="random" />
    <vehicle id="400107" type="Raleigh" route="ab" depart="436" departLane="free" departSpeed="random" />
    <vehicle id="400108" type="Raleigh" route="ji" depart="439" departLane="free" departSpeed="random" />
    <vehicle id="400109" type="Raleigh" route="ac" depart="441" departLane="free" departSpeed="random" />
    <vehicle id="400110" type="Raleigh" route="kl" depart="443" departLane="free" departSpeed="random" />
    <vehicle id="400111" type="Raleigh" route="ji" depart="448" departLane="free" departSpeed="random" />
    <vehicle id="400112" type="Raleigh" route="ba" depart="451" departLane="free" departSpeed="random" />
    <vehicle id="400113" type="Raleigh" route="bi" depart="451" departLane="free" departSpeed="random" />
    <vehicle id="400114" type="Raleigh" route="ba" depart="459" departLane="free" departSpeed="random" />
    <vehicle id="400115" type="Raleigh" route="lk" depart="460" departLane="free" departSpeed="random" />
    <vehicle id="400116" type="Raleigh" route="ab" depart="465" departLane="free" departSpeed="random" />
    <vehicle id="400117" type="Raleigh" route="eb" depart="470" departLane="free" departSpeed="random" />
    <vehicle id="400118" type="Raleigh" route="gh" depart="472" departLane="free" departSpeed="random" />
    <vehicle id="400119" type="Raleigh" route="ba" depart="473" departLane="free" departSpeed="random" />
    <vehicle id="400120" type="Raleigh" route="eb" depart="479" departLane="free" departSpeed="random" />
    <vehicle id="400121" type="Raleigh" route="bl" depart="483" departLane="free" departSpeed="random" />
    <vehicle id="400122" type="Raleigh" route="cd" depart="489" departLane="free" departSpeed="random" />
    <vehicle id="400123" type="Raleigh" route="ab" depart="495" departLane="free" departSpeed="random" />
    <vehicle id="400124" type="Raleigh" route="ab" depart="500" departLane="free" departSpeed="random" />
    <vehicle id="400125" type="Raleigh" route="cd" depart="504" departLane="free" departSpeed="random" />
    <vehicle id="400126" type="Raleigh" route="ef" depart="505" departLane="free" departSpeed="random" />
    <vehicle id="400127" type="Raleigh" route="dc" depart="507" departLane="free" departSpeed="random" />
    <vehicle id="400128" type="Raleigh" route="ba" depart="516" departLane="free" departSpeed="random" />
    <vehicle id="400129" type="Raleigh" route="ba" depart="519" departLane="free" departSpeed="random" />
    <vehicle id="400130" type="Raleigh" route="ab" depart="521" departLane="free" departSpeed="random" />
    <vehicle id="400131" type="Raleigh" route="ba" depart="521" departLane="free" departSpeed="random" />
    <vehicle id="400132" type="Raleigh" route="ab" depart="522" departLane="free" departSpeed="random" />
    <vehicle id="400133" type="Raleigh" route="gh" depart="523" departLane="free" departSpeed="random" />
    <vehicle id="400134" type="Raleigh" route="ef" depart="529" departLane="free" departSpeed="random" />
    <vehicle id="400135" type="Raleigh" route="bl" depart="536" departLane="free" departSpeed="random" />
    <vehicle id="400136" type="Raleigh" route="ab" depart="541" departLane="free" departSpeed="random" />
    <vehicle id="400137" type="Raleigh" route="fe" depart="541" departLane="free" departSpeed="random" />
    <vehicle id="400138" type="Raleigh" route="ab" depart="543" departLane="free" departSpeed="random" />
    <vehicle id="400139" type="Raleigh" route="ji" depart="550" departLane="free" departSpeed="random" />
    <vehicle id="400140" type="Raleigh" route="ab" depart="552" departLane="free" departSpeed="random" />
    <vehicle id="400141" type="Raleigh" route="gh" depart="557" departLane="free" departSpeed="random" />
    <vehicle id="400142" type="Raleigh" route="lk" depart="562" departLane="free" departSpeed="random" />
    <vehicle id="400143" type="Raleigh" route="fe" depart="563" departLane="free" departSpeed="random" />
    <vehicle id="400144" type="Raleigh" route="ab" depart="568" departLane="free" departSpeed="random" />
    <vehicle id="400145" type="Raleigh" route="ef" depart="574" departLane="free" departSpeed="random" />
    <vehicle id="400146" type="Raleigh" route="ji" depart="574" departLane="free" departSpeed="random" />
    <vehicle id="400147" type="Raleigh" route="ba" depart="577" departLane="free" departSpeed="random" />
    <vehicle id="400148" type="Raleigh" route="ac" depart="583" departLane="free" departSpeed="random" />
    <vehicle id="400149" type="Raleigh" route="dc" depart="583" departLane="free" departSpeed="random" />
    <vehicle id="400150" type="Raleigh" route="ab" depart="586" departLane="free" departSpeed="random" />
    <vehicle id="400151" type="Raleigh" route="bf" depart="592" departLane="free" departSpeed="random" />
    <vehicle id="400152" type="Raleigh" route="ij" depart="599" departLane="free" departSpeed="random" />
    <vehicle id="400153" type="Raleigh" route="ia" depart="599" departLane="free" departSpeed="random" />
    <vehicle id="400154" type="Raleigh" route="lb" depart="602" departLane="free" departSpeed="random" />
    <vehicle id="400155" type="Raleigh" route="kl" depart="604" departLane="free" departSpeed="random" />
    <vehicle id="400156" type="Raleigh" route="kl" depart="623" departLane="free" departSpeed="random" />
    <vehicle id="400157" type="Raleigh" route="ij" depart="629" departLane="free" departSpeed="random" />
    <vehicle id="400158" type="Raleigh" route="lk" depart="632" departLane="free" departSpeed="random" />
    <vehicle id="400159" type="Raleigh" route="ba" depart="636" departLane="free" departSpeed="random" />
    <vehicle id="400160" type="Raleigh" route="ba" depart="637" departLane="free" departSpeed="random" />
    <vehicle id="400161" type="Raleigh" route="ba" depart="639" departLane="free" departSpeed="random" />
    <vehicle id="400162" type="Raleigh" route="lk" depart="644" departLane="free" departSpeed="random" />
    <vehicle id="400163" type="Raleigh" route="ji" depart="651" departLane="free" departSpeed="random" />
    <vehicle id="400164" type="Raleigh" route="dc" depart="655" departLane="free" departSpeed="random" />
    <vehicle id="400165" type="Raleigh" route="ba" depart="663" departLane="free" departSpeed="random" />
    <vehicle id="400166" type="Raleigh" route="bk" depart="664" departLane="free" departSpeed="random" />
    <vehicle id="400167" type="Raleigh" route="ji" depart="666" departLane="free" departSpeed="random" />
    <vehicle id="400168" type="Raleigh" route="ef" depart="668" departLane="free" departSpeed="random" />
    <vehicle id="400169" type="Raleigh" route="eb" depart="678" departLane="free" departSpeed="random" />
    <vehicle id="400170" type="Raleigh" route="ia" depart="681" departLane="free" departSpeed="random" />
    <vehicle id="400171" type="Raleigh" route="gh" depart="683" departLane="free" departSpeed="random" />
    <vehicle id="400172" type="Raleigh" route="ab" depart="684" departLane="free" departSpeed="random" />
    <vehicle id="400173" type="Raleigh" route="fa" depart="701" departLane="free" departSpeed="random" />
    <vehicle id="400174" type="Raleigh" route="hg" depart="702" departLane="free" departSpeed="random" />
    <vehicle id="400175" type="Raleigh" route="ba" depart="707" departLane="free" departSpeed="random" />
    <vehicle id="400176" type="Raleigh" route="ac" depart="711" departLane="free" departSpeed="random" />
    <vehicle id="400177" type="Raleigh" route="lk" depart="713" departLane="free" departSpeed="random" />
    <vehicle id="400178" type="Raleigh" route="gb" depart="717" departLane="free" departSpeed="random" />
    <vehicle id="400179" type="Raleigh" route="fb" depart="720" departLane="free" departSpeed="random" />
    <vehicle id="400180" type="Raleigh" route="gh" depart="720" departLane="free" departSpeed="random" />
    <vehicle id="400181" type="Raleigh" route="ab" depart="722" departLane="free" departSpeed="random" />
    <vehicle id="400182" type="Raleigh" route="ba" depart="723" departLane="free" departSpeed="random" />
    <vehicle id="400183" type="Raleigh" route="ba" depart="727" departLane="free" departSpeed="random" />
    <vehicle id="400184" type="Raleigh" route="ij" depart="727" departLane="free" departSpeed="random" />
    <vehicle id="400185" type="Raleigh" route="ab" depart="732" departLane="free" departSpeed="random" />
    <vehicle id="400186" type="Raleigh" route="ba" depart="732" departLane="free" departSpeed="random" />
    <vehicle id="400187" type="Raleigh" route="bd" depart="732" departLane="free" departSpeed="random" />
    <vehicle id="400188" type="Raleigh" route="gh" depart="743" departLane="free" departSpeed="random" />
    <vehicle id="400189" type="Raleigh" route="ji" depart="743" departLane="free" departSpeed="random" />
    <vehicle id="400190" type="Raleigh" route="ab" depart="755" departLane="free" departSpeed="random" />
    <vehicle id="400191" type="Raleigh" route="ab" depart="760" departLane="free" departSpeed="random" />
    <vehicle id="400192" type="Raleigh" route="hg" depart="768" departLane="free" departSpeed="random" />
    <vehicle id="400193" type="Raleigh" route="ba" depart="769" departLane="free" departSpeed="random" />
    <vehicle id="400194" type="Raleigh" route="bl" depart="769" departLane="free" departSpeed="random" />
    <vehicle id="400195" type="Raleigh" route="hg" depart="772" departLane="free" departSpeed="random" />
    <vehicle id="400196" type="Raleigh" route="ij" depart="775" departLane="free" departSpeed="random" />
    <vehicle id="400197" type="Raleigh" route="dc" depart="776" departLane="free" departSpeed="random" />
    <vehicle id="400198" type="Raleigh" route="ba" depart="780" departLane="free" departSpeed="random" />
    <vehicle id="400199" type="Raleigh" route="hg" depart="786" departLane="free" departSpeed="random" />
    <vehicle id="400200" type="Raleigh" route="hg" depart="787" departLane="free" departSpeed="random" />
    <vehicle id="400201" type="Raleigh" route="ab" depart="791" departLane="free" departSpeed="random" />
    <vehicle id="400202" type="Raleigh" route="ba" depart="798" departLane="free" departSpeed="random" />
    <vehicle id="400203" type="Raleigh" route="ab" depart="804" departLane="free" departSpeed="random" />
    <vehicle id="400204" type="Raleigh" route="kb" depart="805" departLane="free" departSpeed="random" />
    <vehicle id="400205" type="Raleigh" route="ji" depart="810" departLane="free" departSpeed="random" />
    <vehicle id="400206" type="Raleigh" route="hb" depart="813" departLane="free" departSpeed="random" />
    <vehicle id="400207" type="Raleigh" route="ij" depart="826" departLane="free" departSpeed="random" />
    <vehicle id="400208" type="Raleigh" route="kl" depart="831" departLane="free" departSpeed="random" />
    <vehicle id="400209" type="Raleigh" route="hg" depart="836" departLane="free" departSpeed="random" />
    <vehicle id="400210" type="Raleigh" route="lk" depart="836" departLane="free" departSpeed="random" />
    <vehicle id="400211" type="Raleigh" route="ac" depart="837" departLane="free" departSpeed="random" />
    <vehicle id="400212" type="Raleigh" route="bl" depart="843" departLane="free" departSpeed="random" />
    <vehicle id="400213" type="Raleigh" route="ab" depart="846" departLane="free" departSpeed="random" />
    <vehicle id="400214" type="Raleigh" route="cb" depart="846" departLane="free" departSpeed="random" />
    <vehicle id="400215" type="Raleigh" route="fe" depart="850" departLane="free" departSpeed="random" />
    <vehicle id="400216" type="Raleigh" route="ab" depart="853" departLane="free" departSpeed="random" />
    <vehicle id="400217" type="Raleigh" route="lk" depart="855" departLane="free" departSpeed="random" />
    <vehicle id="400218" type="Raleigh" route="ji" depart="859" departLane="free" departSpeed="random" />
    <vehicle id="400219" type="Raleigh" route="ab" depart="860" departLane="free" departSpeed="random" />
    <vehicle id="400220" type="Raleigh" route="dc" depart="861" departLane="free" departSpeed="random" />
    <vehicle id="400221" type="Raleigh" route="bg" depart="863" departLane="free" departSpeed="random" />
    <vehicle id="400222" type="Raleigh" route="ba" depart="869" departLane="free" departSpeed="random" />
    <vehicle id="400223" type="Raleigh" route="dc" depart="870" departLane="free" departSpeed="random" />
    <vehicle id="400224" type="Raleigh" route="kl" depart="870" departLane="free" departSpeed="random" />
    <vehicle id="400225" type="Raleigh" route="db" depart="883" departLane="free" departSpeed="random" />
    <vehicle id="400226" type="Raleigh" route="gh" depart="886" departLane="free" departSpeed="random" />
    <vehicle id="400227" type="Raleigh" route="ab" depart="887" departLane="free" departSpeed="random" />
    <vehicle id="400228" type="Raleigh" route="ab" depart="888" departLane="free" departSpeed="random" />
    <vehicle id="400229" type="Raleigh" route="ab" depart="889" departLane="free" departSpeed="random" />
    <vehicle id="400230" type="Raleigh" route="gh" depart="889" departLane="free" departSpeed="random" />
    <vehicle id="400231" type="Raleigh" route="lk" depart="891" departLane="free" departSpeed="random" />
    <vehicle id="400232" type="Raleigh" route="ga" depart="893" departLane="free" departSpeed="random" />
    <vehicle id="400233" type="Raleigh" route="ab" depart="899" departLane="free" departSpeed="random" />
    <vehicle id="400234" type="Raleigh" route="ba" depart="900" departLane="free" departSpeed="random" />
    <vehicle id="400235" type="Raleigh" route="hg" depart="900" departLane="free" departSpeed="random" />
    <vehicle id="400236" type="Raleigh" route="fe" depart="919" departLane="free" departSpeed="random" />
    <vehicle id="400237" type="Raleigh" route="ji" depart="919" departLane="free" departSpeed="random" />
    <vehicle id="400238" type="Raleigh" route="ha" depart="926" departLane="free" departSpeed="random" />
    <vehicle id="400239" type="Raleigh" route="ij" depart="929" departLane="free" departSpeed="random" />
    <vehicle id="400240" type="Raleigh" route="lk" depart="934" departLane="free" departSpeed="random" />
    <vehicle id="400241" type="Raleigh" route="bk" depart="939" departLane="free" departSpeed="random" />
    <vehicle id="400242" type="Raleigh" route="ka" depart="939" departLane="free" departSpeed="random" />
    <vehicle id="400243" type="Raleigh" route="ef" depart="942" departLane="free" departSpeed="random" />
    <vehicle id="400244" type="Raleigh" route="ib" depart="946" departLane="free" departSpeed="random" />
    <vehicle id="400245" type="Raleigh" route="bl" depart="956" departLane="free" departSpeed="random" />