<routes>
        
    <vType id="Raleigh" accel="0.8" decel="1.5" sigma="0.5" length="1.6" maxSpeed="5.8" color="255,255,0" guiShape="bicycle" vClass="bicycle" emissionClass="zero"/>  

    <!-- ========================================== -->
    <!-- HORIZONTAL BICYCLE: West to East          -->
    <!-- ========================================== -->
    
    <!-- From a to exits -->
    <route id="ab" edges="a_3 3_6 6_17 17_18 18_19 19_b"/>
    <route id="ac" edges="a_3 3_c"/>
    <route id="ad" edges="a_3 3_d"/>
    <route id="ae" edges="a_3 3_6 6_e"/>
    <route id="af" edges="a_3 3_6 6_f"/>
    <route id="ag" edges="a_3 3_6 6_17 17_g"/>
    <route id="ah" edges="a_3 3_6 6_17 17_h"/>
    <route id="ai" edges="a_3 3_6 6_17 17_18 18_i"/>
    <route id="aj" edges="a_3 3_6 6_17 17_18 18_j"/>
    <route id="ak" edges="a_3 3_6 6_17 17_18 18_19 19_k"/>
    <route id="al" edges="a_3 3_6 6_17 17_18 18_19 19_l"/>

    <!-- ========================================== -->
    <!-- HORIZONTAL BICYCLE: East to West          -->
    <!-- ========================================== -->
    
    <!-- From b to exits -->
    <route id="ba" edges="b_19 19_18 18_17 17_6 6_3 3_a"/>
    <route id="bk" edges="b_19 19_k"/>
    <route id="bl" edges="b_19 19_l"/>
    <route id="bi" edges="b_19 19_18 18_i"/>
    <route id="bj" edges="b_19 19_18 18_j"/>
    <route id="bg" edges="b_19 19_18 18_17 17_g"/>
    <route id="bh" edges="b_19 19_18 18_17 17_h"/>
    <route id="be" edges="b_19 19_18 18_17 17_6 6_e"/>
    <route id="bf" edges="b_19 19_18 18_17 17_6 6_f"/>
    <route id="bc" edges="b_19 19_18 18_17 17_6 6_3 3_c"/>
    <route id="bd" edges="b_19 19_18 18_17 17_6 6_3 3_d"/>

    <!-- ========================================== -->
    <!-- VERTICAL BICYCLE @ TLS-1                  -->
    <!-- ========================================== -->
    
    <route id="cd" edges="c_3 3_d"/>
    <route id="ca" edges="c_3 3_a"/>
    <route id="cb" edges="c_3 3_6 6_17 17_18 18_19 19_b"/>
    
    <route id="dc" edges="d_3 3_c"/>
    <route id="da" edges="d_3 3_a"/>
    <route id="db" edges="d_3 3_6 6_17 17_18 18_19 19_b"/>

    <!-- ========================================== -->
    <!-- VERTICAL BICYCLE @ TLS-2                  -->
    <!-- ========================================== -->
    
    <route id="ef" edges="e_6 6_f"/>
    <route id="ea" edges="e_6 6_3 3_a"/>
    <route id="eb" edges="e_6 6_17 17_18 18_19 19_b"/>
    
    <route id="fe" edges="f_6 6_e"/>
    <route id="fa" edges="f_6 6_3 3_a"/>
    <route id="fb" edges="f_6 6_17 17_18 18_19 19_b"/>

    <!-- ========================================== -->
    <!-- VERTICAL BICYCLE @ TLS-3                  -->
    <!-- ========================================== -->
    
    <route id="gh" edges="g_17 17_h"/>
    <route id="ga" edges="g_17 17_6 6_3 3_a"/>
    <route id="gb" edges="g_17 17_18 18_19 19_b"/>
    
    <route id="hg" edges="h_17 17_g"/>
    <route id="ha" edges="h_17 17_6 6_3 3_a"/>
    <route id="hb" edges="h_17 17_18 18_19 19_b"/>

    <!-- ========================================== -->
    <!-- VERTICAL BICYCLE @ TLS-4                  -->
    <!-- ========================================== -->
    
    <route id="ij" edges="i_18 18_j"/>
    <route id="ia" edges="i_18 18_17 17_6 6_3 3_a"/>
    <route id="ib" edges="i_18 18_19 19_b"/>
    
    <route id="ji" edges="j_18 18_i"/>
    <route id="ja" edges="j_18 18_17 17_6 6_3 3_a"/>
    <route id="jb" edges="j_18 18_19 19_b"/>

    <!-- ========================================== -->
    <!-- VERTICAL BICYCLE @ TLS-5                  -->
    <!-- ========================================== -->
    
    <route id="kl" edges="k_19 19_l"/>
    <route id="ka" edges="k_19 19_18 18_17 17_6 6_3 3_a"/>
    <route id="kb" edges="k_19 19_b"/>
    
    <route id="lk" edges="l_19 19_k"/>
    <route id="la" edges="l_19 19_18 18_17 17_6 6_3 3_a"/>
    <route id="lb" edges="l_19 19_b"/>

        
    <vehicle id="400000" type="Raleigh" route="ij" depart="1" departLane="free" departSpeed="random" />
    <vehicle id="400001" type="Raleigh" route="lk" depart="1" departLane="free" departSpeed="random" />
    <vehicle id="400002" type="Raleigh" route="ba" depart="3" departLane="free" departSpeed="random" />
    <vehicle id="400003" type="Raleigh" route="gh" depart="3" departLane="free" departSpeed="random" />
    <vehicle id="400004" type="Raleigh" route="ba" depart="4" departLane="free" departSpeed="random" />
    <vehicle id="400005" type="Raleigh" route="lk" depart="4" departLane="free" departSpeed="random" />
    <vehicle id="400006" type="Raleigh" route="ab" depart="5" departLane="free" departSpeed="random" />
    <vehicle id="400007" type="Raleigh" route="ab" depart="6" departLane="free" departSpeed="random" />
    <vehicle id="400008" type="Raleigh" route="ji" depart="6" departLane="free" departSpeed="random" />
    <vehicle id="400009" type="Raleigh" route="ba" depart="7" departLane="free" departSpeed="random" />
    <vehicle id="400010" type="Raleigh" route="ab" depart="8" departLane="free" departSpeed="random" />
    <vehicle id="400011" type="Raleigh" route="ba" depart="8" departLane="free" departSpeed="random" />
    <vehicle id="400012" type="Raleigh" route="ef" depart="9" departLane="free" departSpeed="random" />
    <vehicle id="400013" type="Raleigh" route="jb" depart="9" departLane="free" departSpeed="random" />
    <vehicle id="400014" type="Raleigh" route="ab" depart="10" departLane="free" departSpeed="random" />
    <vehicle id="400015" type="Raleigh" route="ef" depart="10" departLane="free" departSpeed="random" />
    <vehicle id="400016" type="Raleigh" route="ba" depart="12" departLane="free" departSpeed="random" />
    <vehicle id="400017" type="Raleigh" route="be" depart="12" departLane="free" departSpeed="random" />
    <vehicle id="400018" type="Raleigh" route="ab" depart="14" departLane="free" departSpeed="random" />
    <vehicle id="400019" type="Raleigh" route="ac" depart="14" departLane="free" departSpeed="random" />
    <vehicle id="400020" type="Raleigh" route="ba" depart="14" departLane="free" departSpeed="random" />
    <vehicle id="400021" type="Raleigh" route="ji" depart="19" departLane="free" departSpeed="random" />
    <vehicle id="400022" type="Raleigh" route="db" depart="20" departLane="free" departSpeed="random" />
    <vehicle id="400023" type="Raleigh" route="ef" depart="21" departLane="free" departSpeed="random" />
    <vehicle id="400024" type="Raleigh" route="kl" depart="21" departLane="free" departSpeed="random" />
    <vehicle id="400025" type="Raleigh" route="bj" depart="22" departLane="free" departSpeed="random" />
    <vehicle id="400026" type="Raleigh" route="ag" depart="25" departLane="free" departSpeed="random" />
    <vehicle id="400027" type="Raleigh" route="bl" depart="25" departLane="free" departSpeed="random" />
    <vehicle id="400028" type="Raleigh" route="cd" depart="25" departLane="free" departSpeed="random" />
    <vehicle id="400029" type="Raleigh" route="bk" depart="26" departLane="free" departSpeed="random" />
    <vehicle id="400030" type="Raleigh" route="ga" depart="26" departLane="free" departSpeed="random" />
    <vehicle id="400031" type="Raleigh" route="ba" depart="27" departLane="free" departSpeed="random" />
    <vehicle id="400032" type="Raleigh" route="fa" depart="27" departLane="free" departSpeed="random" />
    <vehicle id="400033" type="Raleigh" route="ab" depart="29" departLane="free" departSpeed="random" />
    <vehicle id="400034" type="Raleigh" route="ba" depart="31" departLane="free" departSpeed="random" />
    <vehicle id="400035" type="Raleigh" route="bk" depart="31" departLane="free" departSpeed="random" />
    <vehicle id="400036" type="Raleigh" route="fe" depart="31" departLane="free" departSpeed="random" />
    <vehicle id="400037" type="Raleigh" route="dc" depart="32" departLane="free" departSpeed="random" />
    <vehicle id="400038" type="Raleigh" route="gh" depart="32" departLane="free" departSpeed="random" />
    <vehicle id="400039" type="Raleigh" route="fe" depart="33" departLane="free" departSpeed="random" />
    <vehicle id="400040" type="Raleigh" route="lk" depart="33" departLane="free" departSpeed="random" />
    <vehicle id="400041" type="Raleigh" route="ji" depart="35" departLane="free" departSpeed="random" />
    <vehicle id="400042" type="Raleigh" route="lk" depart="35" departLane="free" departSpeed="random" />
    <vehicle id="400043" type="Raleigh" route="gh" depart="36" departLane="free" departSpeed="random" />
    <vehicle id="400044" type="Raleigh" route="fe" depart="37" departLane="free" departSpeed="random" />
    <vehicle id="400045" type="Raleigh" route="ef" depart="38" departLane="free" departSpeed="random" />
    <vehicle id="400046" type="Raleigh" route="fe" depart="38" departLane="free" departSpeed="random" />
    <vehicle id="400047" type="Raleigh" route="bg" depart="39" departLane="free" departSpeed="random" />
    <vehicle id="400048" type="Raleigh" route="ef" depart="39" departLane="free" departSpeed="random" />
    <vehicle id="400049" type="Raleigh" route="cd" depart="42" departLane="free" departSpeed="random" />
    <vehicle id="400050" type="Raleigh" route="ad" depart="43" departLane="free" departSpeed="random" />
    <vehicle id="400051" type="Raleigh" route="ab" depart="44" departLane="free" departSpeed="random" />
    <vehicle id="400052" type="Raleigh" route="bk" depart="44" departLane="free" departSpeed="random" />
    <vehicle id="400053" type="Raleigh" route="gh" depart="44" departLane="free" departSpeed="random" />
    <vehicle id="400054" type="Raleigh" route="ad" depart="47" departLane="free" departSpeed="random" />
    <vehicle id="400055" type="Raleigh" route="ef" depart="47" departLane="free" departSpeed="random" />
    <vehicle id="400056" type="Raleigh" route="cd" depart="48" departLane="free" departSpeed="random" />
    <vehicle id="400057" type="Raleigh" route="fe" depart="48" departLane="free" departSpeed="random" />
    <vehicle id="400058" type="Raleigh" route="gh" depart="48" departLane="free" departSpeed="random" />
    <vehicle id="400059" type="Raleigh" route="ab" depart="49" departLane="free" departSpeed="random" />
    <vehicle id="400060" type="Raleigh" route="ba" depart="49" departLane="free" departSpeed="random" />
    <vehicle id="400061" type="Raleigh" route="dc" depart="50" departLane="free" departSpeed="random" />
    <vehicle id="400062" type="Raleigh" route="ka" depart="50" departLane="free" departSpeed="random" />
    <vehicle id="400063" type="Raleigh" route="cd" depart="52" departLane="free" departSpeed="random" />
    <vehicle id="400064" type="Raleigh" route="fe" depart="53" departLane="free" departSpeed="random" />
    <vehicle id="400065" type="Raleigh" route="gh" depart="54" departLane="free" departSpeed="random" />
    <vehicle id="400066" type="Raleigh" route="ba" depart="55" departLane="free" departSpeed="random" />
    <vehicle id="400067" type="Raleigh" route="bf" depart="55" departLane="free" departSpeed="random" />
    <vehicle id="400068" type="Raleigh" route="fe" depart="58" departLane="free" departSpeed="random" />
    <vehicle id="400069" type="Raleigh" route="ea" depart="59" departLane="free" departSpeed="random" />
    <vehicle id="400070" type="Raleigh" route="hg" depart="59" departLane="free" departSpeed="random" />
    <vehicle id="400071" type="Raleigh" route="hg" depart="60" departLane="free" departSpeed="random" />
    <vehicle id="400072" type="Raleigh" route="ka" depart="61" departLane="free" departSpeed="random" />
    <vehicle id="400073" type="Raleigh" route="hg" depart="62" departLane="free" departSpeed="random" />
    <vehicle id="400074" type="Raleigh" route="ai" depart="64" departLane="free" departSpeed="random" />
    <vehicle id="400075" type="Raleigh" route="ba" depart="65" departLane="free" departSpeed="random" />
    <vehicle id="400076" type="Raleigh" route="bk" depart="65" departLane="free" departSpeed="random" />
    <vehicle id="400077" type="Raleigh" route="ad" depart="66" departLane="free" departSpeed="random" />
    <vehicle id="400078" type="Raleigh" route="gh" depart="66" departLane="free" departSpeed="random" />
    <vehicle id="400079" type="Raleigh" route="ab" depart="68" departLane="free" departSpeed="random" />
    <vehicle id="400080" type="Raleigh" route="lk" depart="68" departLane="free" departSpeed="random" />
    <vehicle id="400081" type="Raleigh" route="bf" depart="69" departLane="free" departSpeed="random" />
    <vehicle id="400082" type="Raleigh" route="ef" depart="69" departLane="free" departSpeed="random" />
    <vehicle id="400083" type="Raleigh" route="ba" depart="70" departLane="free" departSpeed="random" />
    <vehicle id="400084" type="Raleigh" route="lk" depart="70" departLane="free" departSpeed="random" />
    <vehicle id="400085" type="Raleigh" route="ab" depart="71" departLane="free" departSpeed="random" />
    <vehicle id="400086" type="Raleigh" route="dc" depart="71" departLane="free" departSpeed="random" />
    <vehicle id="400087" type="Raleigh" route="lk" depart="71" departLane="free" departSpeed="random" />
    <vehicle id="400088" type="Raleigh" route="ef" depart="72" departLane="free" departSpeed="random" />
    <vehicle id="400089" type="Raleigh" route="bk" depart="73" departLane="free" departSpeed="random" />
    <vehicle id="400090" type="Raleigh" route="fe" depart="73" departLane="free" departSpeed="random" />
    <vehicle id="400091" type="Raleigh" route="cd" depart="74" departLane="free" departSpeed="random" />
    <vehicle id="400092" type="Raleigh" route="gh" depart="74" departLane="free" departSpeed="random" />
    <vehicle id="400093" type="Raleigh" route="ba" depart="75" departLane="free" departSpeed="random" />
    <vehicle id="400094" type="Raleigh" route="ij" depart="75" departLane="free" departSpeed="random" />
    <vehicle id="400095" type="Raleigh" route="ba" depart="76" departLane="free" departSpeed="random" />
    <vehicle id="400096" type="Raleigh" route="fe" depart="78" departLane="free" departSpeed="random" />
    <vehicle id="400097" type="Raleigh" route="kl" depart="79" departLane="free" departSpeed="random" />
    <vehicle id="400098" type="Raleigh" route="ba" depart="80" departLane="free" departSpeed="random" />
    <vehicle id="400099" type="Raleigh" route="fe" depart="80" departLane="free" departSpeed="random" />
    <vehicle id="400100" type="Raleigh" route="dc" depart="81" departLane="free" departSpeed="random" />
    <vehicle id="400101" type="Raleigh" route="ef" depart="83" departLane="free" departSpeed="random" />
    <vehicle id="400102" type="Raleigh" route="ba" depart="85" departLane="free" departSpeed="random" />
    <vehicle id="400103" type="Raleigh" route="fe" depart="85" departLane="free" departSpeed="random" />
    <vehicle id="400104" type="Raleigh" route="ba" depart="86" departLane="free" departSpeed="random" />
    <vehicle id="400105" type="Raleigh" route="ba" depart="87" departLane="free" departSpeed="random" />
    <vehicle id="400106" type="Raleigh" route="ba" depart="90" departLane="free" departSpeed="random" />
    <vehicle id="400107" type="Raleigh" route="cb" depart="90" departLane="free" departSpeed="random" />
    <vehicle id="400108" type="Raleigh" route="lk" depart="90" departLane="free" departSpeed="random" />
    <vehicle id="400109" type="Raleigh" route="ab" depart="91" departLane="free" departSpeed="random" />
    <vehicle id="400110" type="Raleigh" route="ba" depart="91" departLane="free" departSpeed="random" />
    <vehicle id="400111" type="Raleigh" route="cd" depart="92" departLane="free" departSpeed="random" />
    <vehicle id="400112" type="Raleigh" route="hg" depart="92" departLane="free" departSpeed="random" />
    <vehicle id="400113" type="Raleigh" route="ji" depart="92" departLane="free" departSpeed="random" />
    <vehicle id="400114" type="Raleigh" route="ak" depart="94" departLane="free" departSpeed="random" />
    <vehicle id="400115" type="Raleigh" route="la" depart="97" departLane="free" departSpeed="random" />
    <vehicle id="400116" type="Raleigh" route="gh" depart="98" departLane="free" departSpeed="random" />
    <vehicle id="400117" type="Raleigh" route="ba" depart="99" departLane="free" departSpeed="random" />
    <vehicle id="400118" type="Raleigh" route="ji" depart="100" departLane="free" departSpeed="random" />
    <vehicle id="400119" type="Raleigh" route="ad" depart="101" departLane="free" departSpeed="random" />
    <vehicle id="400120" type="Raleigh" route="ae" depart="104" departLane="free" departSpeed="random" />
    <vehicle id="400121" type="Raleigh" route="ea" depart="105" departLane="free" departSpeed="random" />
    <vehicle id="400122" type="Raleigh" route="hg" depart="105" departLane="free" departSpeed="random" />
    <vehicle id="400123" type="Raleigh" route="hg" depart="107" departLane="free" departSpeed="random" />
    <vehicle id="400124" type="Raleigh" route="ij" depart="107" departLane="free" departSpeed="random" />
    <vehicle id="400125" type="Raleigh" route="lb" depart="107" departLane="free" departSpeed="random" />
    <vehicle id="400126" type="Raleigh" route="ad" depart="108" departLane="free" departSpeed="random" />
    <vehicle id="400127" type="Raleigh" route="fe" depart="108" departLane="free" departSpeed="random" />
    <vehicle id="400128" type="Raleigh" route="ea" depart="109" departLane="free" departSpeed="random" />
    <vehicle id="400129" type="Raleigh" route="ij" depart="109" departLane="free" departSpeed="random" />
    <vehicle id="400130" type="Raleigh" route="ah" depart="111" departLane="free" departSpeed="random" />
    <vehicle id="400131" type="Raleigh" route="ba" depart="111" departLane="free" departSpeed="random" />
    <vehicle id="400132" type="Raleigh" route="ae" depart="112" departLane="free" departSpeed="random" />
    <vehicle id="400133" type="Raleigh" route="ba" depart="112" departLane="free" departSpeed="random" />
    <vehicle id="400134" type="Raleigh" route="cd" depart="112" departLane="free" departSpeed="random" />
    <vehicle id="400135" type="Raleigh" route="gh" depart="112" departLane="free" departSpeed="random" />
    <vehicle id="400136" type="Raleigh" route="ba" depart="113" departLane="free" departSpeed="random" />
    <vehicle id="400137" type="Raleigh" route="dc" depart="114" departLane="free" departSpeed="random" />
    <vehicle id="400138" type="Raleigh" route="ba" depart="115" departLane="free" departSpeed="random" />
    <vehicle id="400139" type="Raleigh" route="ba" depart="116" departLane="free" departSpeed="random" />
    <vehicle id="400140" type="Raleigh" route="ba" depart="117" departLane="free" departSpeed="random" />
    <vehicle id="400141" type="Raleigh" route="ab" depart="119" departLane="free" departSpeed="random" />
    <vehicle id="400142" type="Raleigh" route="hg" depart="119" departLane="free" departSpeed="random" />
    <vehicle id="400143" type="Raleigh" route="ij" depart="119" departLane="free" departSpeed="random" />
    <vehicle id="400144" type="Raleigh" route="gh" depart="120" departLane="free" departSpeed="random" />
    <vehicle id="400145" type="Raleigh" route="ab" depart="121" departLane="free" departSpeed="random" />
    <vehicle id="400146" type="Raleigh" route="cd" depart="123" departLane="free" departSpeed="random" />
    <vehicle id="400147" type="Raleigh" route="ca" depart="124" departLane="free" departSpeed="random" />
    <vehicle id="400148" type="Raleigh" route="ef" depart="124" departLane="free" departSpeed="random" />
    <vehicle id="400149" type="Raleigh" route="cb" depart="125" departLane="free" departSpeed="random" />
    <vehicle id="400150" type="Raleigh" route="kl" depart="126" departLane="free" departSpeed="random" />
    <vehicle id="400151" type="Raleigh" route="ab" depart="127" departLane="free" departSpeed="random" />
    <vehicle id="400152" type="Raleigh" route="ba" depart="127" departLane="free" departSpeed="random" />
    <vehicle id="400153" type="Raleigh" route="ja" depart="128" departLane="free" departSpeed="random" />
    <vehicle id="400154" type="Raleigh" route="ab" depart="130" departLane="free" departSpeed="random" />
    <vehicle id="400155" type="Raleigh" route="kl" depart="130" departLane="free" departSpeed="random" />
    <vehicle id="400156" type="Raleigh" route="aj" depart="134" departLane="free" departSpeed="random" />
    <vehicle id="400157" type="Raleigh" route="gh" depart="135" departLane="free" departSpeed="random" />
    <vehicle id="400158" type="Raleigh" route="lk" depart="135" departLane="free" departSpeed="random" />
    <vehicle id="400159" type="Raleigh" route="ai" depart="136" departLane="free" departSpeed="random" />
    <vehicle id="400160" type="Raleigh" route="dc" depart="137" departLane="free" departSpeed="random" />
    <vehicle id="400161" type="Raleigh" route="gh" depart="137" departLane="free" departSpeed="random" />
    <vehicle id="400162" type="Raleigh" route="ji" depart="137" departLane="free" departSpeed="random" />
    <vehicle id="400163" type="Raleigh" route="bh" depart="140" departLane="free" departSpeed="random" />
    <vehicle id="400164" type="Raleigh" route="ef" depart="140" departLane="free" departSpeed="random" />
    <vehicle id="400165" type="Raleigh" route="ef" depart="141" departLane="free" departSpeed="random" />
    <vehicle id="400166" type="Raleigh" route="ha" depart="141" departLane="free" departSpeed="random" />
    <vehicle id="400167" type="Raleigh" route="ba" depart="143" departLane="free" departSpeed="random" />
    <vehicle id="400168" type="Raleigh" route="ji" depart="143" departLane="free" departSpeed="random" />
    <vehicle id="400169" type="Raleigh" route="eb" depart="144" departLane="free" departSpeed="random" />
    <vehicle id="400170" type="Raleigh" route="ij" depart="144" departLane="free" departSpeed="random" />
    <vehicle id="400171" type="Raleigh" route="ae" depart="146" departLane="free" departSpeed="random" />
    <vehicle id="400172" type="Raleigh" route="ba" depart="146" departLane="free" departSpeed="random" />
    <vehicle id="400173" type="Raleigh" route="aj" depart="147" departLane="free" departSpeed="random" />
    <vehicle id="400174" type="Raleigh" route="ba" depart="147" departLane="free" departSpeed="random" />
    <vehicle id="400175" type="Raleigh" route="bk" depart="148" departLane="free" departSpeed="random" />
    <vehicle id="400176" type="Raleigh" route="lk" depart="148" departLane="free" departSpeed="random" />
    <vehicle id="400177" type="Raleigh" route="gh" depart="149" departLane="free" departSpeed="random" />
    <vehicle id="400178" type="Raleigh" route="ad" depart="150" departLane="free" departSpeed="random" />
    <vehicle id="400179" type="Raleigh" route="al" depart="150" departLane="free" departSpeed="random" />
    <vehicle id="400180" type="Raleigh" route="dc" depart="152" departLane="free" departSpeed="random" />
    <vehicle id="400181" type="Raleigh" route="ji" depart="152" departLane="free" departSpeed="random" />
    <vehicle id="400182" type="Raleigh" route="bk" depart="155" departLane="free" departSpeed="random" />
    <vehicle id="400183" type="Raleigh" route="bg" depart="156" departLane="free" departSpeed="random" />
    <vehicle id="400184" type="Raleigh" route="ef" depart="156" departLane="free" departSpeed="random" />
    <vehicle id="400185" type="Raleigh" route="bj" depart="157" departLane="free" departSpeed="random" />
    <vehicle id="400186" type="Raleigh" route="hg" depart="157" departLane="free" departSpeed="random" />
    <vehicle id="400187" type="Raleigh" route="ba" depart="158" departLane="free" departSpeed="random" />
    <vehicle id="400188" type="Raleigh" route="fe" depart="158" departLane="free" departSpeed="random" />
    <vehicle id="400189" type="Raleigh" route="gb" depart="158" departLane="free" departSpeed="random" />
    <vehicle id="400190" type="Raleigh" route="hg" depart="158" departLane="free" departSpeed="random" />
    <vehicle id="400191" type="Raleigh" route="kl" depart="158" departLane="free" departSpeed="random" />
    <vehicle id="400192" type="Raleigh" route="lk" depart="158" departLane="free" departSpeed="random" />
    <vehicle id="400193" type="Raleigh" route="ab" depart="159" departLane="free" departSpeed="random" />
    <vehicle id="400194" type="Raleigh" route="fb" depart="159" departLane="free" departSpeed="random" />
    <vehicle id="400195" type="Raleigh" route="cd" depart="160" departLane="free" departSpeed="random" />
    <vehicle id="400196" type="Raleigh" route="hg" depart="160" departLane="free" departSpeed="random" />
    <vehicle id="400197" type="Raleigh" route="cd" depart="161" departLane="free" departSpeed="random" />
    <vehicle id="400198" type="Raleigh" route="ab" depart="163" departLane="free" departSpeed="random" />
    <vehicle id="400199" type="Raleigh" route="bc" depart="164" departLane="free" departSpeed="random" />
    <vehicle id="400200" type="Raleigh" route="hg" depart="164" departLane="free" departSpeed="random" />
    <vehicle id="400201" type="Raleigh" route="ba" depart="165" departLane="free" departSpeed="random" />
    <vehicle id="400202" type="Raleigh" route="dc" depart="165" departLane="free" departSpeed="random" />
    <vehicle id="400203" type="Raleigh" route="ha" depart="165" departLane="free" departSpeed="random" />
    <vehicle id="400204" type="Raleigh" route="ba" depart="166" departLane="free" departSpeed="random" />
    <vehicle id="400205" type="Raleigh" route="aj" depart="167" departLane="free" departSpeed="random" />
    <vehicle id="400206" type="Raleigh" route="ac" depart="168" departLane="free" departSpeed="random" />
    <vehicle id="400207" type="Raleigh" route="ba" depart="168" departLane="free" departSpeed="random" />
    <vehicle id="400208" type="Raleigh" route="gb" depart="168" departLane="free" departSpeed="random" />
    <vehicle id="400209" type="Raleigh" route="ef" depart="170" departLane="free" departSpeed="random" />
    <vehicle id="400210" type="Raleigh" route="ab" depart="171" departLane="free" departSpeed="random" />
    <vehicle id="400211" type="Raleigh" route="cd" depart="171" departLane="free" departSpeed="random" />
    <vehicle id="400212" type="Raleigh" route="dc" depart="173" departLane="free" departSpeed="random" />
    <vehicle id="400213" type="Raleigh" route="ij" depart="173" departLane="free" departSpeed="random" />
    <vehicle id="400214" type="Raleigh" route="hg" depart="174" departLane="free" departSpeed="random" />
    <vehicle id="400215" type="Raleigh" route="ba" depart="175" departLane="free" departSpeed="random" />
    <vehicle id="400216" type="Raleigh" route="hg" depart="175" departLane="free" departSpeed="random" />
    <vehicle id="400217" type="Raleigh" route="ab" depart="176" departLane="free" departSpeed="random" />
    <vehicle id="400218" type="Raleigh" route="bk" depart="176" departLane="free" departSpeed="random" />
    <vehicle id="400219" type="Raleigh" route="ba" depart="177" departLane="free" departSpeed="random" />
    <vehicle id="400220" type="Raleigh" route="ab" depart="178" departLane="free" departSpeed="random" />
    <vehicle id="400221" type="Raleigh" route="ji" depart="178" departLane="free" departSpeed="random" />
    <vehicle id="400222" type="Raleigh" route="kl" depart="179" departLane="free" departSpeed="random" />
    <vehicle id="400223" type="Raleigh" route="ab" depart="180" departLane="free" departSpeed="random" />
    <vehicle id="400224" type="Raleigh" route="hg" depart="184" departLane="free" departSpeed="random" />
    <vehicle id="400225" type="Raleigh" route="ac" depart="185" departLane="free" departSpeed="random" />
    <vehicle id="400226" type="Raleigh" route="ib" depart="185" departLane="free" departSpeed="random" />
    <vehicle id="400227" type="Raleigh" route="kl" depart="185" departLane="free" departSpeed="random" />
    <vehicle id="400228" type="Raleigh" route="la" depart="185" departLane="free" departSpeed="random" />
    <vehicle id="400229" type="Raleigh" route="ae" depart="188" departLane="free" departSpeed="random" />
    <vehicle id="400230" type="Raleigh" route="ah" depart="188" departLane="free" departSpeed="random" />
    <vehicle id="400231" type="Raleigh" route="fe" depart="188" departLane="free" departSpeed="random" />
    <vehicle id="400232" type="Raleigh" route="ac" depart="189" departLane="free" departSpeed="random" />
    <vehicle id="400233" type="Raleigh" route="hg" depart="190" departLane="free" departSpeed="random" />
    <vehicle id="400234" type="Raleigh" route="cd" depart="191" departLane="free" departSpeed="random" />
    <vehicle id="400235" type="Raleigh" route="fe" depart="191" departLane="free" departSpeed="random" />
    <vehicle id="400236" type="Raleigh" route="ab" depart="194" departLane="free" departSpeed="random" />
    <vehicle id="400237" type="Raleigh" route="gh" depart="196" departLane="free" departSpeed="random" />
    <vehicle id="400238" type="Raleigh" route="ba" depart="197" departLane="free" departSpeed="random" />
    <vehicle id="400239" type="Raleigh" route="ea" depart="197" departLane="free" departSpeed="random" />
    <vehicle id="400240" type="Raleigh" route="hb" depart="197" departLane="free" departSpeed="random" />
    <vehicle id="400241" type="Raleigh" route="jb" depart="198" departLane="free" departSpeed="random" />
    <vehicle id="400242" type="Raleigh" route="ba" depart="199" departLane="free" departSpeed="random" />
    <vehicle id="400243" type="Raleigh" route="ab" depart="200" departLane="free" departSpeed="random" />
    <vehicle id="400244" type="Raleigh" route="ac" depart="201" departLane="free" departSpeed="random" />
    <vehicle id="400245" type="Raleigh" route="kl" depart="201" departLane="free" departSpeed="random" />
    <vehicle id="400246" type="Raleigh" route="bd" depart="202" departLane="free" departSpeed="random" />