<routes>
        
    <vType id="Raleigh" accel="0.8" decel="1.5" sigma="0.5" length="1.6" maxSpeed="5.8" color="255,255,0" guiShape="bicycle" vClass="bicycle" emissionClass="zero"/>  

    <!-- ========================================== -->
    <!-- HORIZONTAL BICYCLE: West to East          -->
    <!-- ========================================== -->
    
    <!-- From a to exits -->
    <route id="ab" edges="a_3 3_6 6_17 17_18 18_19 19_b"/>
    <route id="ac" edges="a_3 3_c"/>
    <route id="ad" edges="a_3 3_d"/>
    <route id="ae" edges="a_3 3_6 6_e"/>
    <route id="af" edges="a_3 3_6 6_f"/>
    <route id="ag" edges="a_3 3_6 6_17 17_g"/>
    <route id="ah" edges="a_3 3_6 6_17 17_h"/>
    <route id="ai" edges="a_3 3_6 6_17 17_18 18_i"/>
    <route id="aj" edges="a_3 3_6 6_17 17_18 18_j"/>
    <route id="ak" edges="a_3 3_6 6_17 17_18 18_19 19_k"/>
    <route id="al" edges="a_3 3_6 6_17 17_18 18_19 19_l"/>

    <!-- ========================================== -->
    <!-- HORIZONTAL BICYCLE: East to West          -->
    <!-- ========================================== -->
    
    <!-- From b to exits -->
    <route id="ba" edges="b_19 19_18 18_17 17_6 6_3 3_a"/>
    <route id="bk" edges="b_19 19_k"/>
    <route id="bl" edges="b_19 19_l"/>
    <route id="bi" edges="b_19 19_18 18_i"/>
    <route id="bj" edges="b_19 19_18 18_j"/>
    <route id="bg" edges="b_19 19_18 18_17 17_g"/>
    <route id="bh" edges="b_19 19_18 18_17 17_h"/>
    <route id="be" edges="b_19 19_18 18_17 17_6 6_e"/>
    <route id="bf" edges="b_19 19_18 18_17 17_6 6_f"/>
    <route id="bc" edges="b_19 19_18 18_17 17_6 6_3 3_c"/>
    <route id="bd" edges="b_19 19_18 18_17 17_6 6_3 3_d"/>

    <!-- ========================================== -->
    <!-- VERTICAL BICYCLE @ TLS-1                  -->
    <!-- ========================================== -->
    
    <route id="cd" edges="c_3 3_d"/>
    <route id="ca" edges="c_3 3_a"/>
    <route id="cb" edges="c_3 3_6 6_17 17_18 18_19 19_b"/>
    
    <route id="dc" edges="d_3 3_c"/>
    <route id="da" edges="d_3 3_a"/>
    <route id="db" edges="d_3 3_6 6_17 17_18 18_19 19_b"/>

    <!-- ========================================== -->
    <!-- VERTICAL BICYCLE @ TLS-2                  -->
    <!-- ========================================== -->
    
    <route id="ef" edges="e_6 6_f"/>
    <route id="ea" edges="e_6 6_3 3_a"/>
    <route id="eb" edges="e_6 6_17 17_18 18_19 19_b"/>
    
    <route id="fe" edges="f_6 6_e"/>
    <route id="fa" edges="f_6 6_3 3_a"/>
    <route id="fb" edges="f_6 6_17 17_18 18_19 19_b"/>

    <!-- ========================================== -->
    <!-- VERTICAL BICYCLE @ TLS-3                  -->
    <!-- ========================================== -->
    
    <route id="gh" edges="g_17 17_h"/>
    <route id="ga" edges="g_17 17_6 6_3 3_a"/>
    <route id="gb" edges="g_17 17_18 18_19 19_b"/>
    
    <route id="hg" edges="h_17 17_g"/>
    <route id="ha" edges="h_17 17_6 6_3 3_a"/>
    <route id="hb" edges="h_17 17_18 18_19 19_b"/>

    <!-- ========================================== -->
    <!-- VERTICAL BICYCLE @ TLS-4                  -->
    <!-- ========================================== -->
    
    <route id="ij" edges="i_18 18_j"/>
    <route id="ia" edges="i_18 18_17 17_6 6_3 3_a"/>
    <route id="ib" edges="i_18 18_19 19_b"/>
    
    <route id="ji" edges="j_18 18_i"/>
    <route id="ja" edges="j_18 18_17 17_6 6_3 3_a"/>
    <route id="jb" edges="j_18 18_19 19_b"/>

    <!-- ========================================== -->
    <!-- VERTICAL BICYCLE @ TLS-5                  -->
    <!-- ========================================== -->
    
    <route id="kl" edges="k_19 19_l"/>
    <route id="ka" edges="k_19 19_18 18_17 17_6 6_3 3_a"/>
    <route id="kb" edges="k_19 19_b"/>
    
    <route id="lk" edges="l_19 19_k"/>
    <route id="la" edges="l_19 19_18 18_17 17_6 6_3 3_a"/>
    <route id="lb" edges="l_19 19_b"/>

        
    <vehicle id="400000" type="Raleigh" route="ba" depart="1" departLane="free" departSpeed="random" />
    <vehicle id="400001" type="Raleigh" route="kl" depart="2" departLane="free" departSpeed="random" />
    <vehicle id="400002" type="Raleigh" route="ij" depart="8" departLane="free" departSpeed="random" />
    <vehicle id="400003" type="Raleigh" route="hg" depart="13" departLane="free" departSpeed="random" />
    <vehicle id="400004" type="Raleigh" route="ji" depart="14" departLane="free" departSpeed="random" />
    <vehicle id="400005" type="Raleigh" route="cd" depart="17" departLane="free" departSpeed="random" />
    <vehicle id="400006" type="Raleigh" route="kl" depart="18" departLane="free" departSpeed="random" />
    <vehicle id="400007" type="Raleigh" route="ab" depart="19" departLane="free" departSpeed="random" />
    <vehicle id="400008" type="Raleigh" route="ab" depart="24" departLane="free" departSpeed="random" />
    <vehicle id="400009" type="Raleigh" route="ea" depart="24" departLane="free" departSpeed="random" />
    <vehicle id="400010" type="Raleigh" route="ba" depart="27" departLane="free" departSpeed="random" />
    <vehicle id="400011" type="Raleigh" route="ab" depart="29" departLane="free" departSpeed="random" />
    <vehicle id="400012" type="Raleigh" route="dc" depart="31" departLane="free" departSpeed="random" />
    <vehicle id="400013" type="Raleigh" route="ef" depart="31" departLane="free" departSpeed="random" />
    <vehicle id="400014" type="Raleigh" route="gh" depart="33" departLane="free" departSpeed="random" />
    <vehicle id="400015" type="Raleigh" route="ba" depart="36" departLane="free" departSpeed="random" />
    <vehicle id="400016" type="Raleigh" route="ji" depart="39" departLane="free" departSpeed="random" />
    <vehicle id="400017" type="Raleigh" route="fa" depart="42" departLane="free" departSpeed="random" />
    <vehicle id="400018" type="Raleigh" route="ef" depart="44" departLane="free" departSpeed="random" />
    <vehicle id="400019" type="Raleigh" route="gh" depart="46" departLane="free" departSpeed="random" />
    <vehicle id="400020" type="Raleigh" route="kl" depart="48" departLane="free" departSpeed="random" />
    <vehicle id="400021" type="Raleigh" route="ba" depart="49" departLane="free" departSpeed="random" />
    <vehicle id="400022" type="Raleigh" route="ad" depart="53" departLane="free" departSpeed="random" />
    <vehicle id="400023" type="Raleigh" route="cd" depart="53" departLane="free" departSpeed="random" />
    <vehicle id="400024" type="Raleigh" route="jb" depart="53" departLane="free" departSpeed="random" />
    <vehicle id="400025" type="Raleigh" route="kl" depart="54" departLane="free" departSpeed="random" />
    <vehicle id="400026" type="Raleigh" route="ae" depart="60" departLane="free" departSpeed="random" />
    <vehicle id="400027" type="Raleigh" route="fb" depart="64" departLane="free" departSpeed="random" />
    <vehicle id="400028" type="Raleigh" route="ji" depart="64" departLane="free" departSpeed="random" />
    <vehicle id="400029" type="Raleigh" route="ab" depart="68" departLane="free" departSpeed="random" />
    <vehicle id="400030" type="Raleigh" route="fe" depart="68" departLane="free" departSpeed="random" />
    <vehicle id="400031" type="Raleigh" route="ji" depart="69" departLane="free" departSpeed="random" />
    <vehicle id="400032" type="Raleigh" route="cd" depart="78" departLane="free" departSpeed="random" />
    <vehicle id="400033" type="Raleigh" route="ab" depart="80" departLane="free" departSpeed="random" />
    <vehicle id="400034" type="Raleigh" route="gb" depart="81" departLane="free" departSpeed="random" />
    <vehicle id="400035" type="Raleigh" route="ab" depart="84" departLane="free" departSpeed="random" />
    <vehicle id="400036" type="Raleigh" route="ef" depart="86" departLane="free" departSpeed="random" />
    <vehicle id="400037" type="Raleigh" route="bk" depart="88" departLane="free" departSpeed="random" />
    <vehicle id="400038" type="Raleigh" route="ef" depart="89" departLane="free" departSpeed="random" />
    <vehicle id="400039" type="Raleigh" route="ef" depart="92" departLane="free" departSpeed="random" />
    <vehicle id="400040" type="Raleigh" route="kl" depart="92" departLane="free" departSpeed="random" />
    <vehicle id="400041" type="Raleigh" route="fe" depart="93" departLane="free" departSpeed="random" />
    <vehicle id="400042" type="Raleigh" route="gh" depart="94" departLane="free" departSpeed="random" />
    <vehicle id="400043" type="Raleigh" route="da" depart="96" departLane="free" departSpeed="random" />
    <vehicle id="400044" type="Raleigh" route="ab" depart="100" departLane="free" departSpeed="random" />
    <vehicle id="400045" type="Raleigh" route="dc" depart="102" departLane="free" departSpeed="random" />
    <vehicle id="400046" type="Raleigh" route="ac" depart="107" departLane="free" departSpeed="random" />
    <vehicle id="400047" type="Raleigh" route="ha" depart="119" departLane="free" departSpeed="random" />
    <vehicle id="400048" type="Raleigh" route="ab" depart="122" departLane="free" departSpeed="random" />
    <vehicle id="400049" type="Raleigh" route="fe" depart="129" departLane="free" departSpeed="random" />
    <vehicle id="400050" type="Raleigh" route="lk" depart="132" departLane="free" departSpeed="random" />
    <vehicle id="400051" type="Raleigh" route="bk" depart="133" departLane="free" departSpeed="random" />
    <vehicle id="400052" type="Raleigh" route="ab" depart="134" departLane="free" departSpeed="random" />
    <vehicle id="400053" type="Raleigh" route="ba" depart="134" departLane="free" departSpeed="random" />
    <vehicle id="400054" type="Raleigh" route="cd" depart="135" departLane="free" departSpeed="random" />
    <vehicle id="400055" type="Raleigh" route="kl" depart="138" departLane="free" departSpeed="random" />
    <vehicle id="400056" type="Raleigh" route="da" depart="139" departLane="free" departSpeed="random" />
    <vehicle id="400057" type="Raleigh" route="bl" depart="140" departLane="free" departSpeed="random" />
    <vehicle id="400058" type="Raleigh" route="cd" depart="143" departLane="free" departSpeed="random" />
    <vehicle id="400059" type="Raleigh" route="ji" depart="148" departLane="free" departSpeed="random" />
    <vehicle id="400060" type="Raleigh" route="ab" depart="149" departLane="free" departSpeed="random" />
    <vehicle id="400061" type="Raleigh" route="ba" depart="154" departLane="free" departSpeed="random" />
    <vehicle id="400062" type="Raleigh" route="bk" depart="157" departLane="free" departSpeed="random" />
    <vehicle id="400063" type="Raleigh" route="ij" depart="162" departLane="free" departSpeed="random" />
    <vehicle id="400064" type="Raleigh" route="ab" depart="164" departLane="free" departSpeed="random" />
    <vehicle id="400065" type="Raleigh" route="ba" depart="169" departLane="free" departSpeed="random" />
    <vehicle id="400066" type="Raleigh" route="ac" depart="177" departLane="free" departSpeed="random" />
    <vehicle id="400067" type="Raleigh" route="ij" depart="180" departLane="free" departSpeed="random" />
    <vehicle id="400068" type="Raleigh" route="ab" depart="184" departLane="free" departSpeed="random" />
    <vehicle id="400069" type="Raleigh" route="ji" depart="185" departLane="free" departSpeed="random" />
    <vehicle id="400070" type="Raleigh" route="gh" depart="187" departLane="free" departSpeed="random" />
    <vehicle id="400071" type="Raleigh" route="ba" depart="195" departLane="free" departSpeed="random" />
    <vehicle id="400072" type="Raleigh" route="hg" depart="196" departLane="free" departSpeed="random" />
    <vehicle id="400073" type="Raleigh" route="ba" depart="199" departLane="free" departSpeed="random" />
    <vehicle id="400074" type="Raleigh" route="ga" depart="206" departLane="free" departSpeed="random" />
    <vehicle id="400075" type="Raleigh" route="ba" depart="210" departLane="free" departSpeed="random" />
    <vehicle id="400076" type="Raleigh" route="ab" depart="212" departLane="free" departSpeed="random" />
    <vehicle id="400077" type="Raleigh" route="dc" depart="213" departLane="free" departSpeed="random" />
    <vehicle id="400078" type="Raleigh" route="ef" depart="213" departLane="free" departSpeed="random" />
    <vehicle id="400079" type="Raleigh" route="da" depart="215" departLane="free" departSpeed="random" />
    <vehicle id="400080" type="Raleigh" route="ba" depart="218" departLane="free" departSpeed="random" />
    <vehicle id="400081" type="Raleigh" route="lk" depart="221" departLane="free" departSpeed="random" />
    <vehicle id="400082" type="Raleigh" route="ab" depart="224" departLane="free" departSpeed="random" />
    <vehicle id="400083" type="Raleigh" route="ij" depart="229" departLane="free" departSpeed="random" />
    <vehicle id="400084" type="Raleigh" route="bj" depart="230" departLane="free" departSpeed="random" />
    <vehicle id="400085" type="Raleigh" route="bk" depart="233" departLane="free" departSpeed="random" />
    <vehicle id="400086" type="Raleigh" route="bk" depart="234" departLane="free" departSpeed="random" />
    <vehicle id="400087" type="Raleigh" route="bl" depart="236" departLane="free" departSpeed="random" />
    <vehicle id="400088" type="Raleigh" route="dc" depart="241" departLane="free" departSpeed="random" />
    <vehicle id="400089" type="Raleigh" route="lk" depart="245" departLane="free" departSpeed="random" />
    <vehicle id="400090" type="Raleigh" route="ab" depart="246" departLane="free" departSpeed="random" />
    <vehicle id="400091" type="Raleigh" route="ac" depart="249" departLane="free" departSpeed="random" />
    <vehicle id="400092" type="Raleigh" route="lk" depart="249" departLane="free" departSpeed="random" />
    <vehicle id="400093" type="Raleigh" route="ef" depart="250" departLane="free" departSpeed="random" />
    <vehicle id="400094" type="Raleigh" route="hg" depart="250" departLane="free" departSpeed="random" />
    <vehicle id="400095" type="Raleigh" route="ab" depart="256" departLane="free" departSpeed="random" />
    <vehicle id="400096" type="Raleigh" route="ab" depart="258" departLane="free" departSpeed="random" />
    <vehicle id="400097" type="Raleigh" route="lk" depart="258" departLane="free" departSpeed="random" />
    <vehicle id="400098" type="Raleigh" route="ba" depart="259" departLane="free" departSpeed="random" />
    <vehicle id="400099" type="Raleigh" route="ab" depart="261" departLane="free" departSpeed="random" />
    <vehicle id="400100" type="Raleigh" route="ba" depart="263" departLane="free" departSpeed="random" />
    <vehicle id="400101" type="Raleigh" route="gb" depart="268" departLane="free" departSpeed="random" />
    <vehicle id="400102" type="Raleigh" route="fa" depart="269" departLane="free" departSpeed="random" />
    <vehicle id="400103" type="Raleigh" route="hg" depart="273" departLane="free" departSpeed="random" />
    <vehicle id="400104" type="Raleigh" route="ba" depart="281" departLane="free" departSpeed="random" />
    <vehicle id="400105" type="Raleigh" route="ef" depart="281" departLane="free" departSpeed="random" />
    <vehicle id="400106" type="Raleigh" route="hg" depart="282" departLane="free" departSpeed="random" />
    <vehicle id="400107" type="Raleigh" route="ab" depart="283" departLane="free" departSpeed="random" />
    <vehicle id="400108" type="Raleigh" route="ba" depart="286" departLane="free" departSpeed="random" />
    <vehicle id="400109" type="Raleigh" route="bl" depart="287" departLane="free" departSpeed="random" />
    <vehicle id="400110" type="Raleigh" route="ba" depart="289" departLane="free" departSpeed="random" />
    <vehicle id="400111" type="Raleigh" route="af" depart="292" departLane="free" departSpeed="random" />
    <vehicle id="400112" type="Raleigh" route="fe" depart="292" departLane="free" departSpeed="random" />
    <vehicle id="400113" type="Raleigh" route="hg" depart="293" departLane="free" departSpeed="random" />
    <vehicle id="400114" type="Raleigh" route="ji" depart="296" departLane="free" departSpeed="random" />
    <vehicle id="400115" type="Raleigh" route="gh" depart="297" departLane="free" departSpeed="random" />
    <vehicle id="400116" type="Raleigh" route="ji" depart="303" departLane="free" departSpeed="random" />
    <vehicle id="400117" type="Raleigh" route="ba" depart="304" departLane="free" departSpeed="random" />
    <vehicle id="400118" type="Raleigh" route="bk" depart="307" departLane="free" departSpeed="random" />
    <vehicle id="400119" type="Raleigh" route="bk" depart="308" departLane="free" departSpeed="random" />
    <vehicle id="400120" type="Raleigh" route="ab" depart="309" departLane="free" departSpeed="random" />
    <vehicle id="400121" type="Raleigh" route="ba" depart="309" departLane="free" departSpeed="random" />
    <vehicle id="400122" type="Raleigh" route="ad" depart="312" departLane="free" departSpeed="random" />
    <vehicle id="400123" type="Raleigh" route="ab" depart="313" departLane="free" departSpeed="random" />
    <vehicle id="400124" type="Raleigh" route="bl" depart="314" departLane="free" departSpeed="random" />
    <vehicle id="400125" type="Raleigh" route="ba" depart="316" departLane="free" departSpeed="random" />
    <vehicle id="400126" type="Raleigh" route="ka" depart="322" departLane="free" departSpeed="random" />
    <vehicle id="400127" type="Raleigh" route="ba" depart="324" departLane="free" departSpeed="random" />
    <vehicle id="400128" type="Raleigh" route="ib" depart="327" departLane="free" departSpeed="random" />
    <vehicle id="400129" type="Raleigh" route="kl" depart="328" departLane="free" departSpeed="random" />
    <vehicle id="400130" type="Raleigh" route="fe" depart="329" departLane="free" departSpeed="random" />
    <vehicle id="400131" type="Raleigh" route="ba" depart="333" departLane="free" departSpeed="random" />
    <vehicle id="400132" type="Raleigh" route="bl" depart="335" departLane="free" departSpeed="random" />
    <vehicle id="400133" type="Raleigh" route="ab" depart="336" departLane="free" departSpeed="random" />
    <vehicle id="400134" type="Raleigh" route="ab" depart="337" departLane="free" departSpeed="random" />
    <vehicle id="400135" type="Raleigh" route="hg" depart="337" departLane="free" departSpeed="random" />
    <vehicle id="400136" type="Raleigh" route="ba" depart="340" departLane="free" departSpeed="random" />
    <vehicle id="400137" type="Raleigh" route="ab" depart="345" departLane="free" departSpeed="random" />
    <vehicle id="400138" type="Raleigh" route="lk" depart="349" departLane="free" departSpeed="random" />
    <vehicle id="400139" type="Raleigh" route="ac" depart="350" departLane="free" departSpeed="random" />
    <vehicle id="400140" type="Raleigh" route="dc" depart="353" departLane="free" departSpeed="random" />
    <vehicle id="400141" type="Raleigh" route="gb" depart="366" departLane="free" departSpeed="random" />
    <vehicle id="400142" type="Raleigh" route="fe" depart="368" departLane="free" departSpeed="random" />
    <vehicle id="400143" type="Raleigh" route="ba" depart="376" departLane="free" departSpeed="random" />
    <vehicle id="400144" type="Raleigh" route="ji" depart="376" departLane="free" departSpeed="random" />
    <vehicle id="400145" type="Raleigh" route="ha" depart="377" departLane="free" departSpeed="random" />
    <vehicle id="400146" type="Raleigh" route="bi" depart="380" departLane="free" departSpeed="random" />
    <vehicle id="400147" type="Raleigh" route="fe" depart="380" departLane="free" departSpeed="random" />
    <vehicle id="400148" type="Raleigh" route="ba" depart="381" departLane="free" departSpeed="random" />
    <vehicle id="400149" type="Raleigh" route="gh" depart="384" departLane="free" departSpeed="random" />
    <vehicle id="400150" type="Raleigh" route="bh" depart="385" departLane="free" departSpeed="random" />
    <vehicle id="400151" type="Raleigh" route="ji" depart="395" departLane="free" departSpeed="random" />
    <vehicle id="400152" type="Raleigh" route="ba" depart="398" departLane="free" departSpeed="random" />
    <vehicle id="400153" type="Raleigh" route="ia" depart="399" departLane="free" departSpeed="random" />
    <vehicle id="400154" type="Raleigh" route="cd" depart="401" departLane="free" departSpeed="random" />
    <vehicle id="400155" type="Raleigh" route="gh" depart="404" departLane="free" departSpeed="random" />
    <vehicle id="400156" type="Raleigh" route="ba" depart="406" departLane="free" departSpeed="random" />
    <vehicle id="400157" type="Raleigh" route="bl" depart="410" departLane="free" departSpeed="random" />
    <vehicle id="400158" type="Raleigh" route="ba" depart="414" departLane="free" departSpeed="random" />
    <vehicle id="400159" type="Raleigh" route="ij" depart="417" departLane="free" departSpeed="random" />
    <vehicle id="400160" type="Raleigh" route="ba" depart="419" departLane="free" departSpeed="random" />
    <vehicle id="400161" type="Raleigh" route="lk" depart="419" departLane="free" departSpeed="random" />
    <vehicle id="400162" type="Raleigh" route="bl" depart="420" departLane="free" departSpeed="random" />
    <vehicle id="400163" type="Raleigh" route="ab" depart="423" departLane="free" departSpeed="random" />
    <vehicle id="400164" type="Raleigh" route="gb" depart="434" departLane="free" departSpeed="random" />
    <vehicle id="400165" type="Raleigh" route="dc" depart="442" departLane="free" departSpeed="random" />
    <vehicle id="400166" type="Raleigh" route="ea" depart="444" departLane="free" departSpeed="random" />
    <vehicle id="400167" type="Raleigh" route="ji" depart="446" departLane="free" departSpeed="random" />
    <vehicle id="400168" type="Raleigh" route="ji" depart="453" departLane="free" departSpeed="random" />
    <vehicle id="400169" type="Raleigh" route="ab" depart="455" departLane="free" departSpeed="random" />
    <vehicle id="400170" type="Raleigh" route="ia" depart="458" departLane="free" departSpeed="random" />
    <vehicle id="400171" type="Raleigh" route="ba" depart="462" departLane="free" departSpeed="random" />
    <vehicle id="400172" type="Raleigh" route="jb" depart="465" departLane="free" departSpeed="random" />
    <vehicle id="400173" type="Raleigh" route="ba" depart="471" departLane="free" departSpeed="random" />
    <vehicle id="400174" type="Raleigh" route="ij" depart="471" departLane="free" departSpeed="random" />
    <vehicle id="400175" type="Raleigh" route="gh" depart="472" departLane="free" departSpeed="random" />
    <vehicle id="400176" type="Raleigh" route="ba" depart="475" departLane="free" departSpeed="random" />
    <vehicle id="400177" type="Raleigh" route="gh" depart="483" departLane="free" departSpeed="random" />
    <vehicle id="400178" type="Raleigh" route="ad" depart="484" departLane="free" departSpeed="random" />
    <vehicle id="400179" type="Raleigh" route="fe" depart="489" departLane="free" departSpeed="random" />
    <vehicle id="400180" type="Raleigh" route="ef" depart="495" departLane="free" departSpeed="random" />
    <vehicle id="400181" type="Raleigh" route="ba" depart="496" departLane="free" departSpeed="random" />
    <vehicle id="400182" type="Raleigh" route="ef" depart="498" departLane="free" departSpeed="random" />
    <vehicle id="400183" type="Raleigh" route="ab" depart="505" departLane="free" departSpeed="random" />
    <vehicle id="400184" type="Raleigh" route="fe" depart="509" departLane="free" departSpeed="random" />
    <vehicle id="400185" type="Raleigh" route="gh" depart="513" departLane="free" departSpeed="random" />
    <vehicle id="400186" type="Raleigh" route="lk" depart="513" departLane="free" departSpeed="random" />
    <vehicle id="400187" type="Raleigh" route="ba" depart="518" departLane="free" departSpeed="random" />
    <vehicle id="400188" type="Raleigh" route="ji" depart="524" departLane="free" departSpeed="random" />
    <vehicle id="400189" type="Raleigh" route="cb" depart="525" departLane="free" departSpeed="random" />
    <vehicle id="400190" type="Raleigh" route="ba" depart="529" departLane="free" departSpeed="random" />
    <vehicle id="400191" type="Raleigh" route="hg" depart="529" departLane="free" departSpeed="random" />
    <vehicle id="400192" type="Raleigh" route="ab" depart="539" departLane="free" departSpeed="random" />
    <vehicle id="400193" type="Raleigh" route="ab" depart="540" departLane="free" departSpeed="random" />
    <vehicle id="400194" type="Raleigh" route="ab" depart="541" departLane="free" departSpeed="random" />
    <vehicle id="400195" type="Raleigh" route="ab" depart="545" departLane="free" departSpeed="random" />
    <vehicle id="400196" type="Raleigh" route="ij" depart="547" departLane="free" departSpeed="random" />
    <vehicle id="400197" type="Raleigh" route="ef" depart="549" departLane="free" departSpeed="random" />
    <vehicle id="400198" type="Raleigh" route="gh" depart="552" departLane="free" departSpeed="random" />
    <vehicle id="400199" type="Raleigh" route="la" depart="552" departLane="free" departSpeed="random" />
    <vehicle id="400200" type="Raleigh" route="gh" depart="553" departLane="free" departSpeed="random" />
    <vehicle id="400201" type="Raleigh" route="lb" depart="557" departLane="free" departSpeed="random" />
    <vehicle id="400202" type="Raleigh" route="dc" depart="560" departLane="free" departSpeed="random" />
    <vehicle id="400203" type="Raleigh" route="lk" depart="563" departLane="free" departSpeed="random" />
    <vehicle id="400204" type="Raleigh" route="ba" depart="566" departLane="free" departSpeed="random" />
    <vehicle id="400205" type="Raleigh" route="fe" depart="571" departLane="free" departSpeed="random" />
    <vehicle id="400206" type="Raleigh" route="ea" depart="576" departLane="free" departSpeed="random" />
    <vehicle id="400207" type="Raleigh" route="ab" depart="584" departLane="free" departSpeed="random" />
    <vehicle id="400208" type="Raleigh" route="ac" depart="585" departLane="free" departSpeed="random" />
    <vehicle id="400209" type="Raleigh" route="hg" depart="585" departLane="free" departSpeed="random" />
    <vehicle id="400210" type="Raleigh" route="ab" depart="588" departLane="free" departSpeed="random" />
    <vehicle id="400211" type="Raleigh" route="al" depart="594" departLane="free" departSpeed="random" />
    <vehicle id="400212" type="Raleigh" route="ba" depart="597" departLane="free" departSpeed="random" />
    <vehicle id="400213" type="Raleigh" route="dc" depart="601" departLane="free" departSpeed="random" />
    <vehicle id="400214" type="Raleigh" route="bl" depart="602" departLane="free" departSpeed="random" />
    <vehicle id="400215" type="Raleigh" route="be" depart="612" departLane="free" departSpeed="random" />
    <vehicle id="400216" type="Raleigh" route="ab" depart="615" departLane="free" departSpeed="random" />
    <vehicle id="400217" type="Raleigh" route="ab" depart="621" departLane="free" departSpeed="random" />
    <vehicle id="400218" type="Raleigh" route="lk" depart="632" departLane="free" departSpeed="random" />
    <vehicle id="400219" type="Raleigh" route="ab" depart="633" departLane="free" departSpeed="random" />
    <vehicle id="400220" type="Raleigh" route="kl" depart="634" departLane="free" departSpeed="random" />
    <vehicle id="400221" type="Raleigh" route="cd" depart="635" departLane="free" departSpeed="random" />
    <vehicle id="400222" type="Raleigh" route="ij" depart="636" departLane="free" departSpeed="random" />
    <vehicle id="400223" type="Raleigh" route="ba" depart="639" departLane="free" departSpeed="random" />
    <vehicle id="400224" type="Raleigh" route="hg" depart="643" departLane="free" departSpeed="random" />
    <vehicle id="400225" type="Raleigh" route="cd" depart="646" departLane="free" departSpeed="random" />
    <vehicle id="400226" type="Raleigh" route="ba" depart="650" departLane="free" departSpeed="random" />
    <vehicle id="400227" type="Raleigh" route="dc" depart="650" departLane="free" departSpeed="random" />
    <vehicle id="400228" type="Raleigh" route="dc" depart="656" departLane="free" departSpeed="random" />
    <vehicle id="400229" type="Raleigh" route="cd" depart="657" departLane="free" departSpeed="random" />
    <vehicle id="400230" type="Raleigh" route="ia" depart="659" departLane="free" departSpeed="random" />
    <vehicle id="400231" type="Raleigh" route="fb" depart="661" departLane="free" departSpeed="random" />
    <vehicle id="400232" type="Raleigh" route="kl" depart="661" departLane="free" departSpeed="random" />
    <vehicle id="400233" type="Raleigh" route="ab" depart="662" departLane="free" departSpeed="random" />
    <vehicle id="400234" type="Raleigh" route="ba" depart="663" departLane="free" departSpeed="random" />
    <vehicle id="400235" type="Raleigh" route="ba" depart="672" departLane="free" departSpeed="random" />
    <vehicle id="400236" type="Raleigh" route="da" depart="672" departLane="free" departSpeed="random" />
    <vehicle id="400237" type="Raleigh" route="ad" depart="674" departLane="free" departSpeed="random" />
    <vehicle id="400238" type="Raleigh" route="fe" depart="676" departLane="free" departSpeed="random" />
    <vehicle id="400239" type="Raleigh" route="ac" depart="678" departLane="free" departSpeed="random" />
    <vehicle id="400240" type="Raleigh" route="ab" depart="679" departLane="free" departSpeed="random" />
    <vehicle id="400241" type="Raleigh" route="cd" depart="680" departLane="free" departSpeed="random" />
    <vehicle id="400242" type="Raleigh" route="cb" depart="680" departLane="free" departSpeed="random" />
    <vehicle id="400243" type="Raleigh" route="ba" depart="682" departLane="free" departSpeed="random" />
    <vehicle id="400244" type="Raleigh" route="ba" depart="683" departLane="free" departSpeed="random" />
    <vehicle id="400245" type="Raleigh" route="fa" depart="684" departLane="free" departSpeed="random" />