<routes>
        
            <vType id="Raleigh" accel="0.8" decel="1.5" sigma="0.5" length="1.6" maxSpeed="5.8" color="255,255,0" guiShape="bicycle" vClass="bicycle" emissionClass="zero"/>  
        
            <route id="l" edges="a_3 3_c"/>
            <route id="ll" edges="a_3 3_d"/>
            <route id="lll" edges="a_3 3_6 6_e"/>
            <route id="lV" edges="a_3 3_6 6_f"/>
            <route id="V" edges="a_3 3_6 6_b"/>

            <route id="Vl" edges="b_6 6_f"/>
            <route id="Vll" edges="b_6 6_e"/>
            <route id="Vlll" edges="b_6 6_3 3_a"/>
            <route id="lX" edges="b_6 6_3 3_d"/> 
            <route id="X" edges="b_6 6_3 3_c"/>
            
            
            <route id="Xl" edges="d_3 3_c"/>
            <route id="Xll" edges="d_3 3_a "/>
            <route id="Xlll" edges="d_3 3_6 6_b"/>
            <route id="XlV" edges="d_3 3_6 6_f"/> 
            <route id="XV" edges="d_3 3_6 6_e"/>
            
            <route id="XVl" edges="c_3 3_a"/>
            <route id="XVll" edges="c_3 3_d"/>
            <route id="XVlll" edges="c_3 3_6 6_f"/>
            <route id="XlX" edges="c_3 3_6 6_e"/> 
            <route id="XX" edges="c_3 3_6 6_b"/>
            
            <route id="XXl" edges="f_6 6_b"/>
            <route id="XXll" edges="f_6 6_e"/>
            <route id="XXlll" edges="f_6 6_3 3_d"/>
            <route id="XXlV" edges="f_6 6_3 3_c"/> 
            <route id="XXV" edges="f_6 6_3 3_a"/>
            
            <route id="XXVl"  edges="e_6 6_b"/>
            <route id="XXVll" edges="e_6 6_f"/>
            <route id="XXVlll" edges="e_6 6_3 3_d"/>
            <route id="XXlX" edges="e_6 6_3 3_c"/> 
            <route id="XXX" edges="e_6 6_3 3_a"/>	
                        
        
    <vehicle id="400000" type="Raleigh" route="Vl" depart="7" departLane="free" departSpeed="random" />
    <vehicle id="400001" type="Raleigh" route="V" depart="15" departLane="free" departSpeed="random" />
    <vehicle id="400002" type="Raleigh" route="l" depart="17" departLane="free" departSpeed="random" />
    <vehicle id="400003" type="Raleigh" route="lX" depart="17" departLane="free" departSpeed="random" />
    <vehicle id="400004" type="Raleigh" route="Vlll" depart="18" departLane="free" departSpeed="random" />
    <vehicle id="400005" type="Raleigh" route="XXll" depart="23" departLane="free" departSpeed="random" />
    <vehicle id="400006" type="Raleigh" route="Vlll" depart="32" departLane="free" departSpeed="random" />
    <vehicle id="400007" type="Raleigh" route="Vlll" depart="33" departLane="free" departSpeed="random" />
    <vehicle id="400008" type="Raleigh" route="XXll" depart="35" departLane="free" departSpeed="random" />
    <vehicle id="400009" type="Raleigh" route="V" depart="36" departLane="free" departSpeed="random" />
    <vehicle id="400010" type="Raleigh" route="V" depart="38" departLane="free" departSpeed="random" />
    <vehicle id="400011" type="Raleigh" route="lll" depart="39" departLane="free" departSpeed="random" />
    <vehicle id="400012" type="Raleigh" route="XXVl" depart="49" departLane="free" departSpeed="random" />
    <vehicle id="400013" type="Raleigh" route="lV" depart="56" departLane="free" departSpeed="random" />
    <vehicle id="400014" type="Raleigh" route="Vll" depart="59" departLane="free" departSpeed="random" />
    <vehicle id="400015" type="Raleigh" route="X" depart="59" departLane="free" departSpeed="random" />
    <vehicle id="400016" type="Raleigh" route="Vlll" depart="63" departLane="free" departSpeed="random" />
    <vehicle id="400017" type="Raleigh" route="XXVll" depart="63" departLane="free" departSpeed="random" />
    <vehicle id="400018" type="Raleigh" route="XXll" depart="65" departLane="free" departSpeed="random" />
    <vehicle id="400019" type="Raleigh" route="XXVll" depart="65" departLane="free" departSpeed="random" />
    <vehicle id="400020" type="Raleigh" route="V" depart="69" departLane="free" departSpeed="random" />
    <vehicle id="400021" type="Raleigh" route="V" depart="71" departLane="free" departSpeed="random" />
    <vehicle id="400022" type="Raleigh" route="l" depart="74" departLane="free" departSpeed="random" />
    <vehicle id="400023" type="Raleigh" route="Vlll" depart="77" departLane="free" departSpeed="random" />
    <vehicle id="400024" type="Raleigh" route="ll" depart="80" departLane="free" departSpeed="random" />
    <vehicle id="400025" type="Raleigh" route="Vlll" depart="80" departLane="free" departSpeed="random" />
    <vehicle id="400026" type="Raleigh" route="XVll" depart="82" departLane="free" departSpeed="random" />
    <vehicle id="400027" type="Raleigh" route="V" depart="84" departLane="free" departSpeed="random" />
    <vehicle id="400028" type="Raleigh" route="XXll" depart="85" departLane="free" departSpeed="random" />
    <vehicle id="400029" type="Raleigh" route="Vll" depart="87" departLane="free" departSpeed="random" />
    <vehicle id="400030" type="Raleigh" route="XXll" depart="89" departLane="free" departSpeed="random" />
    <vehicle id="400031" type="Raleigh" route="Vll" depart="90" departLane="free" departSpeed="random" />
    <vehicle id="400032" type="Raleigh" route="V" depart="93" departLane="free" departSpeed="random" />
    <vehicle id="400033" type="Raleigh" route="l" depart="96" departLane="free" departSpeed="random" />
    <vehicle id="400034" type="Raleigh" route="Vlll" depart="97" departLane="free" departSpeed="random" />
    <vehicle id="400035" type="Raleigh" route="XXll" depart="98" departLane="free" departSpeed="random" />
    <vehicle id="400036" type="Raleigh" route="Vlll" depart="100" departLane="free" departSpeed="random" />
    <vehicle id="400037" type="Raleigh" route="XVll" depart="101" departLane="free" departSpeed="random" />
    <vehicle id="400038" type="Raleigh" route="Vlll" depart="108" departLane="free" departSpeed="random" />
    <vehicle id="400039" type="Raleigh" route="Vlll" depart="109" departLane="free" departSpeed="random" />
    <vehicle id="400040" type="Raleigh" route="V" depart="111" departLane="free" departSpeed="random" />
    <vehicle id="400041" type="Raleigh" route="lll" depart="112" departLane="free" departSpeed="random" />
    <vehicle id="400042" type="Raleigh" route="V" depart="113" departLane="free" departSpeed="random" />
    <vehicle id="400043" type="Raleigh" route="Vll" depart="117" departLane="free" departSpeed="random" />
    <vehicle id="400044" type="Raleigh" route="Vlll" depart="120" departLane="free" departSpeed="random" />
    <vehicle id="400045" type="Raleigh" route="Xl" depart="121" departLane="free" departSpeed="random" />
    <vehicle id="400046" type="Raleigh" route="V" depart="125" departLane="free" departSpeed="random" />
    <vehicle id="400047" type="Raleigh" route="Vll" depart="125" departLane="free" departSpeed="random" />
    <vehicle id="400048" type="Raleigh" route="V" depart="126" departLane="free" departSpeed="random" />
    <vehicle id="400049" type="Raleigh" route="Vlll" depart="142" departLane="free" departSpeed="random" />
    <vehicle id="400050" type="Raleigh" route="Vl" depart="149" departLane="free" departSpeed="random" />
    <vehicle id="400051" type="Raleigh" route="XXll" depart="155" departLane="free" departSpeed="random" />
    <vehicle id="400052" type="Raleigh" route="V" depart="156" departLane="free" departSpeed="random" />
    <vehicle id="400053" type="Raleigh" route="ll" depart="158" departLane="free" departSpeed="random" />
    <vehicle id="400054" type="Raleigh" route="Vlll" depart="164" departLane="free" departSpeed="random" />
    <vehicle id="400055" type="Raleigh" route="Vlll" depart="165" departLane="free" departSpeed="random" />
    <vehicle id="400056" type="Raleigh" route="lV" depart="177" departLane="free" departSpeed="random" />
    <vehicle id="400057" type="Raleigh" route="V" depart="177" departLane="free" departSpeed="random" />
    <vehicle id="400058" type="Raleigh" route="lll" depart="181" departLane="free" departSpeed="random" />
    <vehicle id="400059" type="Raleigh" route="XXVll" depart="182" departLane="free" departSpeed="random" />
    <vehicle id="400060" type="Raleigh" route="XXVll" depart="183" departLane="free" departSpeed="random" />
    <vehicle id="400061" type="Raleigh" route="XXl" depart="185" departLane="free" departSpeed="random" />
    <vehicle id="400062" type="Raleigh" route="V" depart="193" departLane="free" departSpeed="random" />
    <vehicle id="400063" type="Raleigh" route="V" depart="194" departLane="free" departSpeed="random" />
    <vehicle id="400064" type="Raleigh" route="XX" depart="195" departLane="free" departSpeed="random" />
    <vehicle id="400065" type="Raleigh" route="Vlll" depart="196" departLane="free" departSpeed="random" />
    <vehicle id="400066" type="Raleigh" route="lX" depart="199" departLane="free" departSpeed="random" />
    <vehicle id="400067" type="Raleigh" route="XVll" depart="200" departLane="free" departSpeed="random" />
    <vehicle id="400068" type="Raleigh" route="XXll" depart="203" departLane="free" departSpeed="random" />
    <vehicle id="400069" type="Raleigh" route="Xl" depart="204" departLane="free" departSpeed="random" />
    <vehicle id="400070" type="Raleigh" route="Vll" depart="205" departLane="free" departSpeed="random" />
    <vehicle id="400071" type="Raleigh" route="XVll" depart="208" departLane="free" departSpeed="random" />
    <vehicle id="400072" type="Raleigh" route="V" depart="219" departLane="free" departSpeed="random" />
    <vehicle id="400073" type="Raleigh" route="XXl" depart="220" departLane="free" departSpeed="random" />
    <vehicle id="400074" type="Raleigh" route="XXVl" depart="222" departLane="free" departSpeed="random" />
    <vehicle id="400075" type="Raleigh" route="lX" depart="225" departLane="free" departSpeed="random" />
    <vehicle id="400076" type="Raleigh" route="lll" depart="229" departLane="free" departSpeed="random" />
    <vehicle id="400077" type="Raleigh" route="V" depart="230" departLane="free" departSpeed="random" />
    <vehicle id="400078" type="Raleigh" route="Vlll" depart="232" departLane="free" departSpeed="random" />
    <vehicle id="400079" type="Raleigh" route="V" depart="234" departLane="free" departSpeed="random" />
    <vehicle id="400080" type="Raleigh" route="lV" depart="235" departLane="free" departSpeed="random" />
    <vehicle id="400081" type="Raleigh" route="Vlll" depart="235" departLane="free" departSpeed="random" />
    <vehicle id="400082" type="Raleigh" route="ll" depart="239" departLane="free" departSpeed="random" />
    <vehicle id="400083" type="Raleigh" route="XXVl" depart="242" departLane="free" departSpeed="random" />
    <vehicle id="400084" type="Raleigh" route="lll" depart="244" departLane="free" departSpeed="random" />
    <vehicle id="400085" type="Raleigh" route="V" depart="245" departLane="free" departSpeed="random" />
    <vehicle id="400086" type="Raleigh" route="Vlll" depart="249" departLane="free" departSpeed="random" />
    <vehicle id="400087" type="Raleigh" route="XVll" depart="249" departLane="free" departSpeed="random" />
    <vehicle id="400088" type="Raleigh" route="XXll" depart="250" departLane="free" departSpeed="random" />
    <vehicle id="400089" type="Raleigh" route="Vlll" depart="256" departLane="free" departSpeed="random" />
    <vehicle id="400090" type="Raleigh" route="ll" depart="258" departLane="free" departSpeed="random" />
    <vehicle id="400091" type="Raleigh" route="XXVll" depart="258" departLane="free" departSpeed="random" />
    <vehicle id="400092" type="Raleigh" route="Vll" depart="260" departLane="free" departSpeed="random" />
    <vehicle id="400093" type="Raleigh" route="XVll" depart="260" departLane="free" departSpeed="random" />
    <vehicle id="400094" type="Raleigh" route="Vll" depart="262" departLane="free" departSpeed="random" />
    <vehicle id="400095" type="Raleigh" route="XXVll" depart="262" departLane="free" departSpeed="random" />
    <vehicle id="400096" type="Raleigh" route="V" depart="263" departLane="free" departSpeed="random" />
    <vehicle id="400097" type="Raleigh" route="Vlll" depart="265" departLane="free" departSpeed="random" />
    <vehicle id="400098" type="Raleigh" route="V" depart="267" departLane="free" departSpeed="random" />
    <vehicle id="400099" type="Raleigh" route="Vlll" depart="270" departLane="free" departSpeed="random" />
    <vehicle id="400100" type="Raleigh" route="V" depart="271" departLane="free" departSpeed="random" />
    <vehicle id="400101" type="Raleigh" route="XXVll" depart="274" departLane="free" departSpeed="random" />
    <vehicle id="400102" type="Raleigh" route="Vlll" depart="277" departLane="free" departSpeed="random" />
    <vehicle id="400103" type="Raleigh" route="ll" depart="278" departLane="free" departSpeed="random" />
    <vehicle id="400104" type="Raleigh" route="XXll" depart="278" departLane="free" departSpeed="random" />
    <vehicle id="400105" type="Raleigh" route="Vlll" depart="279" departLane="free" departSpeed="random" />
    <vehicle id="400106" type="Raleigh" route="Vlll" depart="282" departLane="free" departSpeed="random" />
    <vehicle id="400107" type="Raleigh" route="Vlll" depart="283" departLane="free" departSpeed="random" />
    <vehicle id="400108" type="Raleigh" route="Xl" depart="285" departLane="free" departSpeed="random" />
    <vehicle id="400109" type="Raleigh" route="XVll" depart="290" departLane="free" departSpeed="random" />
    <vehicle id="400110" type="Raleigh" route="l" depart="293" departLane="free" departSpeed="random" />
    <vehicle id="400111" type="Raleigh" route="Vlll" depart="293" departLane="free" departSpeed="random" />
    <vehicle id="400112" type="Raleigh" route="Vlll" depart="295" departLane="free" departSpeed="random" />
    <vehicle id="400113" type="Raleigh" route="lX" depart="296" departLane="free" departSpeed="random" />
    <vehicle id="400114" type="Raleigh" route="lll" depart="301" departLane="free" departSpeed="random" />
    <vehicle id="400115" type="Raleigh" route="Vlll" depart="303" departLane="free" departSpeed="random" />
    <vehicle id="400116" type="Raleigh" route="lV" depart="304" departLane="free" departSpeed="random" />
    <vehicle id="400117" type="Raleigh" route="XXVll" depart="306" departLane="free" departSpeed="random" />
    <vehicle id="400118" type="Raleigh" route="ll" depart="309" departLane="free" departSpeed="random" />
    <vehicle id="400119" type="Raleigh" route="Vl" depart="312" departLane="free" departSpeed="random" />
    <vehicle id="400120" type="Raleigh" route="Xlll" depart="312" departLane="free" departSpeed="random" />
    <vehicle id="400121" type="Raleigh" route="V" depart="320" departLane="free" departSpeed="random" />
    <vehicle id="400122" type="Raleigh" route="XXVll" depart="324" departLane="free" departSpeed="random" />
    <vehicle id="400123" type="Raleigh" route="XXll" depart="325" departLane="free" departSpeed="random" />
    <vehicle id="400124" type="Raleigh" route="XXll" depart="327" departLane="free" departSpeed="random" />
    <vehicle id="400125" type="Raleigh" route="X" depart="328" departLane="free" departSpeed="random" />
    <vehicle id="400126" type="Raleigh" route="XXll" depart="331" departLane="free" departSpeed="random" />
    <vehicle id="400127" type="Raleigh" route="XXll" depart="335" departLane="free" departSpeed="random" />
    <vehicle id="400128" type="Raleigh" route="XXll" depart="341" departLane="free" departSpeed="random" />
    <vehicle id="400129" type="Raleigh" route="XX" depart="344" departLane="free" departSpeed="random" />
    <vehicle id="400130" type="Raleigh" route="V" depart="345" departLane="free" departSpeed="random" />
    <vehicle id="400131" type="Raleigh" route="V" depart="350" departLane="free" departSpeed="random" />
    <vehicle id="400132" type="Raleigh" route="lX" depart="352" departLane="free" departSpeed="random" />
    <vehicle id="400133" type="Raleigh" route="Vl" depart="354" departLane="free" departSpeed="random" />
    <vehicle id="400134" type="Raleigh" route="V" depart="358" departLane="free" departSpeed="random" />
    <vehicle id="400135" type="Raleigh" route="Vlll" depart="364" departLane="free" departSpeed="random" />
    <vehicle id="400136" type="Raleigh" route="Vll" depart="366" departLane="free" departSpeed="random" />
    <vehicle id="400137" type="Raleigh" route="XXll" depart="366" departLane="free" departSpeed="random" />
    <vehicle id="400138" type="Raleigh" route="Vlll" depart="371" departLane="free" departSpeed="random" />
    <vehicle id="400139" type="Raleigh" route="XXX" depart="371" departLane="free" departSpeed="random" />
    <vehicle id="400140" type="Raleigh" route="Vl" depart="374" departLane="free" departSpeed="random" />
    <vehicle id="400141" type="Raleigh" route="Vlll" depart="374" departLane="free" departSpeed="random" />
    <vehicle id="400142" type="Raleigh" route="V" depart="382" departLane="free" departSpeed="random" />
    <vehicle id="400143" type="Raleigh" route="Xl" depart="383" departLane="free" departSpeed="random" />
    <vehicle id="400144" type="Raleigh" route="Vlll" depart="388" departLane="free" departSpeed="random" />
    <vehicle id="400145" type="Raleigh" route="V" depart="395" departLane="free" departSpeed="random" />
    <vehicle id="400146" type="Raleigh" route="V" depart="397" departLane="free" departSpeed="random" />
    <vehicle id="400147" type="Raleigh" route="Vlll" depart="397" departLane="free" departSpeed="random" />
    <vehicle id="400148" type="Raleigh" route="Vl" depart="398" departLane="free" departSpeed="random" />
    <vehicle id="400149" type="Raleigh" route="lX" depart="402" departLane="free" departSpeed="random" />
    <vehicle id="400150" type="Raleigh" route="l" depart="403" departLane="free" departSpeed="random" />
    <vehicle id="400151" type="Raleigh" route="XXll" depart="404" departLane="free" departSpeed="random" />
    <vehicle id="400152" type="Raleigh" route="Vlll" depart="405" departLane="free" departSpeed="random" />
    <vehicle id="400153" type="Raleigh" route="lll" depart="410" departLane="free" departSpeed="random" />
    <vehicle id="400154" type="Raleigh" route="XXll" depart="411" departLane="free" departSpeed="random" />
    <vehicle id="400155" type="Raleigh" route="V" depart="414" departLane="free" departSpeed="random" />
    <vehicle id="400156" type="Raleigh" route="Vlll" depart="418" departLane="free" departSpeed="random" />
    <vehicle id="400157" type="Raleigh" route="XXVll" depart="421" departLane="free" departSpeed="random" />
    <vehicle id="400158" type="Raleigh" route="XVll" depart="429" departLane="free" departSpeed="random" />
    <vehicle id="400159" type="Raleigh" route="X" depart="431" departLane="free" departSpeed="random" />
    <vehicle id="400160" type="Raleigh" route="V" depart="434" departLane="free" departSpeed="random" />
    <vehicle id="400161" type="Raleigh" route="Vlll" depart="434" departLane="free" departSpeed="random" />
    <vehicle id="400162" type="Raleigh" route="Vlll" depart="435" departLane="free" departSpeed="random" />
    <vehicle id="400163" type="Raleigh" route="Vlll" depart="437" departLane="free" departSpeed="random" />
    <vehicle id="400164" type="Raleigh" route="X" depart="445" departLane="free" departSpeed="random" />
    <vehicle id="400165" type="Raleigh" route="XVll" depart="446" departLane="free" departSpeed="random" />
    <vehicle id="400166" type="Raleigh" route="lll" depart="448" departLane="free" departSpeed="random" />
    <vehicle id="400167" type="Raleigh" route="ll" depart="449" departLane="free" departSpeed="random" />
    <vehicle id="400168" type="Raleigh" route="Xl" depart="449" departLane="free" departSpeed="random" />
    <vehicle id="400169" type="Raleigh" route="V" depart="454" departLane="free" departSpeed="random" />
    <vehicle id="400170" type="Raleigh" route="XXll" depart="454" departLane="free" departSpeed="random" />
    <vehicle id="400171" type="Raleigh" route="Vlll" depart="458" departLane="free" departSpeed="random" />
    <vehicle id="400172" type="Raleigh" route="Vl" depart="461" departLane="free" departSpeed="random" />
    <vehicle id="400173" type="Raleigh" route="XVll" depart="463" departLane="free" departSpeed="random" />
    <vehicle id="400174" type="Raleigh" route="l" depart="464" departLane="free" departSpeed="random" />
    <vehicle id="400175" type="Raleigh" route="Vlll" depart="466" departLane="free" departSpeed="random" />
    <vehicle id="400176" type="Raleigh" route="XVll" depart="472" departLane="free" departSpeed="random" />
    <vehicle id="400177" type="Raleigh" route="V" depart="473" departLane="free" departSpeed="random" />
    <vehicle id="400178" type="Raleigh" route="Vlll" depart="475" departLane="free" departSpeed="random" />
    <vehicle id="400179" type="Raleigh" route="Xl" depart="478" departLane="free" departSpeed="random" />
    <vehicle id="400180" type="Raleigh" route="XXVll" depart="485" departLane="free" departSpeed="random" />
    <vehicle id="400181" type="Raleigh" route="V" depart="487" departLane="free" departSpeed="random" />
    <vehicle id="400182" type="Raleigh" route="l" depart="490" departLane="free" departSpeed="random" />
    <vehicle id="400183" type="Raleigh" route="Vlll" depart="492" departLane="free" departSpeed="random" />
    <vehicle id="400184" type="Raleigh" route="Vlll" depart="495" departLane="free" departSpeed="random" />
    <vehicle id="400185" type="Raleigh" route="lV" depart="498" departLane="free" departSpeed="random" />
    <vehicle id="400186" type="Raleigh" route="XVll" depart="498" departLane="free" departSpeed="random" />
    <vehicle id="400187" type="Raleigh" route="Vlll" depart="502" departLane="free" departSpeed="random" />
    <vehicle id="400188" type="Raleigh" route="lX" depart="508" departLane="free" departSpeed="random" />
    <vehicle id="400189" type="Raleigh" route="Xl" depart="511" departLane="free" departSpeed="random" />
    <vehicle id="400190" type="Raleigh" route="Vlll" depart="517" departLane="free" departSpeed="random" />
    <vehicle id="400191" type="Raleigh" route="Xl" depart="518" departLane="free" departSpeed="random" />
    <vehicle id="400192" type="Raleigh" route="Vlll" depart="519" departLane="free" departSpeed="random" />
    <vehicle id="400193" type="Raleigh" route="ll" depart="528" departLane="free" departSpeed="random" />
    <vehicle id="400194" type="Raleigh" route="V" depart="530" departLane="free" departSpeed="random" />
    <vehicle id="400195" type="Raleigh" route="Vlll" depart="532" departLane="free" departSpeed="random" />
    <vehicle id="400196" type="Raleigh" route="XVll" depart="536" departLane="free" departSpeed="random" />
    <vehicle id="400197" type="Raleigh" route="V" depart="541" departLane="free" departSpeed="random" />
    <vehicle id="400198" type="Raleigh" route="XXVll" depart="542" departLane="free" departSpeed="random" />
    <vehicle id="400199" type="Raleigh" route="Vlll" depart="546" departLane="free" departSpeed="random" />
    <vehicle id="400200" type="Raleigh" route="V" depart="547" departLane="free" departSpeed="random" />
    <vehicle id="400201" type="Raleigh" route="Vl" depart="547" departLane="free" departSpeed="random" />
    <vehicle id="400202" type="Raleigh" route="XXVll" depart="547" departLane="free" departSpeed="random" />
    <vehicle id="400203" type="Raleigh" route="lV" depart="557" departLane="free" departSpeed="random" />
    <vehicle id="400204" type="Raleigh" route="Vlll" depart="557" departLane="free" departSpeed="random" />
    <vehicle id="400205" type="Raleigh" route="V" depart="559" departLane="free" departSpeed="random" />
    <vehicle id="400206" type="Raleigh" route="V" depart="562" departLane="free" departSpeed="random" />
    <vehicle id="400207" type="Raleigh" route="Vl" depart="565" departLane="free" departSpeed="random" />
    <vehicle id="400208" type="Raleigh" route="XXll" depart="567" departLane="free" departSpeed="random" />
    <vehicle id="400209" type="Raleigh" route="XXVll" depart="577" departLane="free" departSpeed="random" />
    <vehicle id="400210" type="Raleigh" route="V" depart="581" departLane="free" departSpeed="random" />
    <vehicle id="400211" type="Raleigh" route="Vlll" depart="581" departLane="free" departSpeed="random" />
    <vehicle id="400212" type="Raleigh" route="Xl" depart="581" departLane="free" departSpeed="random" />
    <vehicle id="400213" type="Raleigh" route="V" depart="587" departLane="free" departSpeed="random" />
    <vehicle id="400214" type="Raleigh" route="X" depart="590" departLane="free" departSpeed="random" />
    <vehicle id="400215" type="Raleigh" route="Vlll" depart="595" departLane="free" departSpeed="random" />
    <vehicle id="400216" type="Raleigh" route="Xl" depart="600" departLane="free" departSpeed="random" />
    <vehicle id="400217" type="Raleigh" route="XXVll" depart="602" departLane="free" departSpeed="random" />
    <vehicle id="400218" type="Raleigh" route="lV" depart="611" departLane="free" departSpeed="random" />
    <vehicle id="400219" type="Raleigh" route="Vlll" depart="613" departLane="free" departSpeed="random" />
    <vehicle id="400220" type="Raleigh" route="ll" depart="616" departLane="free" departSpeed="random" />
    <vehicle id="400221" type="Raleigh" route="Vlll" depart="616" departLane="free" departSpeed="random" />
    <vehicle id="400222" type="Raleigh" route="Vl" depart="619" departLane="free" departSpeed="random" />
    <vehicle id="400223" type="Raleigh" route="V" depart="624" departLane="free" departSpeed="random" />
    <vehicle id="400224" type="Raleigh" route="Vlll" depart="625" departLane="free" departSpeed="random" />
    <vehicle id="400225" type="Raleigh" route="ll" depart="631" departLane="free" departSpeed="random" />
    <vehicle id="400226" type="Raleigh" route="Xl" depart="635" departLane="free" departSpeed="random" />
    <vehicle id="400227" type="Raleigh" route="Vlll" depart="641" departLane="free" departSpeed="random" />
    <vehicle id="400228" type="Raleigh" route="Xl" depart="642" departLane="free" departSpeed="random" />
    <vehicle id="400229" type="Raleigh" route="lX" depart="647" departLane="free" departSpeed="random" />
    <vehicle id="400230" type="Raleigh" route="Vlll" depart="650" departLane="free" departSpeed="random" />
    <vehicle id="400231" type="Raleigh" route="XXVll" depart="653" departLane="free" departSpeed="random" />
    <vehicle id="400232" type="Raleigh" route="XXVll" depart="654" departLane="free" departSpeed="random" />
    <vehicle id="400233" type="Raleigh" route="XXVll" depart="656" departLane="free" departSpeed="random" />
    <vehicle id="400234" type="Raleigh" route="XVll" depart="673" departLane="free" departSpeed="random" />
    <vehicle id="400235" type="Raleigh" route="Xl" depart="674" departLane="free" departSpeed="random" />
    <vehicle id="400236" type="Raleigh" route="X" depart="675" departLane="free" departSpeed="random" />
    <vehicle id="400237" type="Raleigh" route="XXVl" depart="676" departLane="free" departSpeed="random" />
    <vehicle id="400238" type="Raleigh" route="Xl" depart="680" departLane="free" departSpeed="random" />
    <vehicle id="400239" type="Raleigh" route="Vlll" depart="685" departLane="free" departSpeed="random" />
    <vehicle id="400240" type="Raleigh" route="Vl" depart="688" departLane="free" departSpeed="random" />
    <vehicle id="400241" type="Raleigh" route="V" depart="691" departLane="free" departSpeed="random" />
    <vehicle id="400242" type="Raleigh" route="l" depart="701" departLane="free" departSpeed="random" />
    <vehicle id="400243" type="Raleigh" route="lll" depart="707" departLane="free" departSpeed="random" />
    <vehicle id="400244" type="Raleigh" route="Xl" depart="707" departLane="free" departSpeed="random" />
    <vehicle id="400245" type="Raleigh" route="Vlll" depart="713" departLane="free" departSpeed="random" />
    <vehicle id="400246" type="Raleigh" route="Vll" depart="718" departLane="free" departSpeed="random" />
    <vehicle id="400247" type="Raleigh" route="V" depart="720" departLane="free" departSpeed="random" />
    <vehicle id="400248" type="Raleigh" route="Xl" depart="723" departLane="free" departSpeed="random" />
    <vehicle id="400249" type="Raleigh" route="V" depart="726" departLane="free" departSpeed="random" />
    <vehicle id="400250" type="Raleigh" route="XXVll" depart="731" departLane="free" departSpeed="random" />
    <vehicle id="400251" type="Raleigh" route="Xl" depart="732" departLane="free" departSpeed="random" />
    <vehicle id="400252" type="Raleigh" route="lV" depart="746" departLane="free" departSpeed="random" />
    <vehicle id="400253" type="Raleigh" route="V" depart="746" departLane="free" departSpeed="random" />
    <vehicle id="400254" type="Raleigh" route="Vl" depart="747" departLane="free" departSpeed="random" />
    <vehicle id="400255" type="Raleigh" route="V" depart="751" departLane="free" departSpeed="random" />
    <vehicle id="400256" type="Raleigh" route="lX" depart="753" departLane="free" departSpeed="random" />
    <vehicle id="400257" type="Raleigh" route="V" depart="754" departLane="free" departSpeed="random" />
    <vehicle id="400258" type="Raleigh" route="Vl" depart="755" departLane="free" departSpeed="random" />
    <vehicle id="400259" type="Raleigh" route="Xl" depart="755" departLane="free" departSpeed="random" />
    <vehicle id="400260" type="Raleigh" route="lX" depart="757" departLane="free" departSpeed="random" />
    <vehicle id="400261" type="Raleigh" route="Vll" depart="760" departLane="free" departSpeed="random" />
    <vehicle id="400262" type="Raleigh" route="l" depart="762" departLane="free" departSpeed="random" />
    <vehicle id="400263" type="Raleigh" route="lll" depart="764" departLane="free" departSpeed="random" />