<routes>
        
    <vType id="Raleigh" accel="0.8" decel="1.5" sigma="0.5" length="1.6" maxSpeed="5.8" color="255,255,0" guiShape="bicycle" vClass="bicycle" emissionClass="zero"/>  

    <!-- ========================================== -->
    <!-- HORIZONTAL BICYCLE: West to East          -->
    <!-- ========================================== -->
    
    <!-- From a to exits -->
    <route id="ab" edges="a_3 3_6 6_17 17_18 18_19 19_b"/>
    <route id="ac" edges="a_3 3_c"/>
    <route id="ad" edges="a_3 3_d"/>
    <route id="ae" edges="a_3 3_6 6_e"/>
    <route id="af" edges="a_3 3_6 6_f"/>
    <route id="ag" edges="a_3 3_6 6_17 17_g"/>
    <route id="ah" edges="a_3 3_6 6_17 17_h"/>
    <route id="ai" edges="a_3 3_6 6_17 17_18 18_i"/>
    <route id="aj" edges="a_3 3_6 6_17 17_18 18_j"/>
    <route id="ak" edges="a_3 3_6 6_17 17_18 18_19 19_k"/>
    <route id="al" edges="a_3 3_6 6_17 17_18 18_19 19_l"/>

    <!-- ========================================== -->
    <!-- HORIZONTAL BICYCLE: East to West          -->
    <!-- ========================================== -->
    
    <!-- From b to exits -->
    <route id="ba" edges="b_19 19_18 18_17 17_6 6_3 3_a"/>
    <route id="bk" edges="b_19 19_k"/>
    <route id="bl" edges="b_19 19_l"/>
    <route id="bi" edges="b_19 19_18 18_i"/>
    <route id="bj" edges="b_19 19_18 18_j"/>
    <route id="bg" edges="b_19 19_18 18_17 17_g"/>
    <route id="bh" edges="b_19 19_18 18_17 17_h"/>
    <route id="be" edges="b_19 19_18 18_17 17_6 6_e"/>
    <route id="bf" edges="b_19 19_18 18_17 17_6 6_f"/>
    <route id="bc" edges="b_19 19_18 18_17 17_6 6_3 3_c"/>
    <route id="bd" edges="b_19 19_18 18_17 17_6 6_3 3_d"/>

    <!-- ========================================== -->
    <!-- VERTICAL BICYCLE @ TLS-1                  -->
    <!-- ========================================== -->
    
    <route id="cd" edges="c_3 3_d"/>
    <route id="ca" edges="c_3 3_a"/>
    <route id="cb" edges="c_3 3_6 6_17 17_18 18_19 19_b"/>
    
    <route id="dc" edges="d_3 3_c"/>
    <route id="da" edges="d_3 3_a"/>
    <route id="db" edges="d_3 3_6 6_17 17_18 18_19 19_b"/>

    <!-- ========================================== -->
    <!-- VERTICAL BICYCLE @ TLS-2                  -->
    <!-- ========================================== -->
    
    <route id="ef" edges="e_6 6_f"/>
    <route id="ea" edges="e_6 6_3 3_a"/>
    <route id="eb" edges="e_6 6_17 17_18 18_19 19_b"/>
    
    <route id="fe" edges="f_6 6_e"/>
    <route id="fa" edges="f_6 6_3 3_a"/>
    <route id="fb" edges="f_6 6_17 17_18 18_19 19_b"/>

    <!-- ========================================== -->
    <!-- VERTICAL BICYCLE @ TLS-3                  -->
    <!-- ========================================== -->
    
    <route id="gh" edges="g_17 17_h"/>
    <route id="ga" edges="g_17 17_6 6_3 3_a"/>
    <route id="gb" edges="g_17 17_18 18_19 19_b"/>
    
    <route id="hg" edges="h_17 17_g"/>
    <route id="ha" edges="h_17 17_6 6_3 3_a"/>
    <route id="hb" edges="h_17 17_18 18_19 19_b"/>

    <!-- ========================================== -->
    <!-- VERTICAL BICYCLE @ TLS-4                  -->
    <!-- ========================================== -->
    
    <route id="ij" edges="i_18 18_j"/>
    <route id="ia" edges="i_18 18_17 17_6 6_3 3_a"/>
    <route id="ib" edges="i_18 18_19 19_b"/>
    
    <route id="ji" edges="j_18 18_i"/>
    <route id="ja" edges="j_18 18_17 17_6 6_3 3_a"/>
    <route id="jb" edges="j_18 18_19 19_b"/>

    <!-- ========================================== -->
    <!-- VERTICAL BICYCLE @ TLS-5                  -->
    <!-- ========================================== -->
    
    <route id="kl" edges="k_19 19_l"/>
    <route id="ka" edges="k_19 19_18 18_17 17_6 6_3 3_a"/>
    <route id="kb" edges="k_19 19_b"/>
    
    <route id="lk" edges="l_19 19_k"/>
    <route id="la" edges="l_19 19_18 18_17 17_6 6_3 3_a"/>
    <route id="lb" edges="l_19 19_b"/>

        
    <vehicle id="400000" type="Raleigh" route="ab" depart="6" departLane="free" departSpeed="random" />
    <vehicle id="400001" type="Raleigh" route="hb" depart="9" departLane="free" departSpeed="random" />
    <vehicle id="400002" type="Raleigh" route="lk" depart="10" departLane="free" departSpeed="random" />
    <vehicle id="400003" type="Raleigh" route="ac" depart="12" departLane="free" departSpeed="random" />
    <vehicle id="400004" type="Raleigh" route="kb" depart="18" departLane="free" departSpeed="random" />
    <vehicle id="400005" type="Raleigh" route="ab" depart="21" departLane="free" departSpeed="random" />
    <vehicle id="400006" type="Raleigh" route="ij" depart="24" departLane="free" departSpeed="random" />
    <vehicle id="400007" type="Raleigh" route="bk" depart="28" departLane="free" departSpeed="random" />
    <vehicle id="400008" type="Raleigh" route="ad" depart="30" departLane="free" departSpeed="random" />
    <vehicle id="400009" type="Raleigh" route="ac" depart="31" departLane="free" departSpeed="random" />
    <vehicle id="400010" type="Raleigh" route="cd" depart="32" departLane="free" departSpeed="random" />
    <vehicle id="400011" type="Raleigh" route="gb" depart="35" departLane="free" departSpeed="random" />
    <vehicle id="400012" type="Raleigh" route="ab" depart="38" departLane="free" departSpeed="random" />
    <vehicle id="400013" type="Raleigh" route="ah" depart="39" departLane="free" departSpeed="random" />
    <vehicle id="400014" type="Raleigh" route="fe" depart="42" departLane="free" departSpeed="random" />
    <vehicle id="400015" type="Raleigh" route="ab" depart="44" departLane="free" departSpeed="random" />
    <vehicle id="400016" type="Raleigh" route="bl" depart="45" departLane="free" departSpeed="random" />
    <vehicle id="400017" type="Raleigh" route="ij" depart="46" departLane="free" departSpeed="random" />
    <vehicle id="400018" type="Raleigh" route="ab" depart="52" departLane="free" departSpeed="random" />
    <vehicle id="400019" type="Raleigh" route="hg" depart="53" departLane="free" departSpeed="random" />
    <vehicle id="400020" type="Raleigh" route="ab" depart="54" departLane="free" departSpeed="random" />
    <vehicle id="400021" type="Raleigh" route="ab" depart="59" departLane="free" departSpeed="random" />
    <vehicle id="400022" type="Raleigh" route="bl" depart="59" departLane="free" departSpeed="random" />
    <vehicle id="400023" type="Raleigh" route="gh" depart="59" departLane="free" departSpeed="random" />
    <vehicle id="400024" type="Raleigh" route="ab" depart="62" departLane="free" departSpeed="random" />
    <vehicle id="400025" type="Raleigh" route="fe" depart="70" departLane="free" departSpeed="random" />
    <vehicle id="400026" type="Raleigh" route="kl" depart="71" departLane="free" departSpeed="random" />
    <vehicle id="400027" type="Raleigh" route="ba" depart="75" departLane="free" departSpeed="random" />
    <vehicle id="400028" type="Raleigh" route="gh" depart="76" departLane="free" departSpeed="random" />
    <vehicle id="400029" type="Raleigh" route="ij" depart="78" departLane="free" departSpeed="random" />
    <vehicle id="400030" type="Raleigh" route="ab" depart="79" departLane="free" departSpeed="random" />
    <vehicle id="400031" type="Raleigh" route="ak" depart="82" departLane="free" departSpeed="random" />
    <vehicle id="400032" type="Raleigh" route="bl" depart="84" departLane="free" departSpeed="random" />
    <vehicle id="400033" type="Raleigh" route="hg" depart="84" departLane="free" departSpeed="random" />
    <vehicle id="400034" type="Raleigh" route="ji" depart="86" departLane="free" departSpeed="random" />
    <vehicle id="400035" type="Raleigh" route="ba" depart="88" departLane="free" departSpeed="random" />
    <vehicle id="400036" type="Raleigh" route="ef" depart="90" departLane="free" departSpeed="random" />
    <vehicle id="400037" type="Raleigh" route="bk" depart="91" departLane="free" departSpeed="random" />
    <vehicle id="400038" type="Raleigh" route="ij" depart="95" departLane="free" departSpeed="random" />
    <vehicle id="400039" type="Raleigh" route="ef" depart="96" departLane="free" departSpeed="random" />
    <vehicle id="400040" type="Raleigh" route="ji" depart="96" departLane="free" departSpeed="random" />
    <vehicle id="400041" type="Raleigh" route="ab" depart="98" departLane="free" departSpeed="random" />
    <vehicle id="400042" type="Raleigh" route="hg" depart="101" departLane="free" departSpeed="random" />
    <vehicle id="400043" type="Raleigh" route="bl" depart="103" departLane="free" departSpeed="random" />
    <vehicle id="400044" type="Raleigh" route="ji" depart="112" departLane="free" departSpeed="random" />
    <vehicle id="400045" type="Raleigh" route="ak" depart="113" departLane="free" departSpeed="random" />
    <vehicle id="400046" type="Raleigh" route="lk" depart="116" departLane="free" departSpeed="random" />
    <vehicle id="400047" type="Raleigh" route="fa" depart="119" departLane="free" departSpeed="random" />
    <vehicle id="400048" type="Raleigh" route="bc" depart="122" departLane="free" departSpeed="random" />
    <vehicle id="400049" type="Raleigh" route="hg" depart="122" departLane="free" departSpeed="random" />
    <vehicle id="400050" type="Raleigh" route="hg" depart="123" departLane="free" departSpeed="random" />
    <vehicle id="400051" type="Raleigh" route="fe" depart="125" departLane="free" departSpeed="random" />
    <vehicle id="400052" type="Raleigh" route="ab" depart="126" departLane="free" departSpeed="random" />
    <vehicle id="400053" type="Raleigh" route="ij" depart="126" departLane="free" departSpeed="random" />
    <vehicle id="400054" type="Raleigh" route="ad" depart="127" departLane="free" departSpeed="random" />
    <vehicle id="400055" type="Raleigh" route="ef" depart="130" departLane="free" departSpeed="random" />
    <vehicle id="400056" type="Raleigh" route="kl" depart="132" departLane="free" departSpeed="random" />
    <vehicle id="400057" type="Raleigh" route="cd" depart="135" departLane="free" departSpeed="random" />
    <vehicle id="400058" type="Raleigh" route="ba" depart="139" departLane="free" departSpeed="random" />
    <vehicle id="400059" type="Raleigh" route="gh" depart="142" departLane="free" departSpeed="random" />
    <vehicle id="400060" type="Raleigh" route="ef" depart="145" departLane="free" departSpeed="random" />
    <vehicle id="400061" type="Raleigh" route="fe" depart="148" departLane="free" departSpeed="random" />
    <vehicle id="400062" type="Raleigh" route="ji" depart="148" departLane="free" departSpeed="random" />
    <vehicle id="400063" type="Raleigh" route="ab" depart="149" departLane="free" departSpeed="random" />
    <vehicle id="400064" type="Raleigh" route="ba" depart="149" departLane="free" departSpeed="random" />
    <vehicle id="400065" type="Raleigh" route="bf" depart="151" departLane="free" departSpeed="random" />
    <vehicle id="400066" type="Raleigh" route="ji" depart="152" departLane="free" departSpeed="random" />
    <vehicle id="400067" type="Raleigh" route="al" depart="153" departLane="free" departSpeed="random" />
    <vehicle id="400068" type="Raleigh" route="hg" depart="155" departLane="free" departSpeed="random" />
    <vehicle id="400069" type="Raleigh" route="be" depart="158" departLane="free" departSpeed="random" />
    <vehicle id="400070" type="Raleigh" route="ib" depart="158" departLane="free" departSpeed="random" />
    <vehicle id="400071" type="Raleigh" route="ba" depart="159" departLane="free" departSpeed="random" />
    <vehicle id="400072" type="Raleigh" route="ac" depart="164" departLane="free" departSpeed="random" />
    <vehicle id="400073" type="Raleigh" route="bk" depart="164" departLane="free" departSpeed="random" />
    <vehicle id="400074" type="Raleigh" route="dc" depart="164" departLane="free" departSpeed="random" />
    <vehicle id="400075" type="Raleigh" route="hg" depart="166" departLane="free" departSpeed="random" />
    <vehicle id="400076" type="Raleigh" route="fe" depart="170" departLane="free" departSpeed="random" />
    <vehicle id="400077" type="Raleigh" route="ba" depart="171" departLane="free" departSpeed="random" />
    <vehicle id="400078" type="Raleigh" route="kl" depart="174" departLane="free" departSpeed="random" />
    <vehicle id="400079" type="Raleigh" route="cd" depart="175" departLane="free" departSpeed="random" />
    <vehicle id="400080" type="Raleigh" route="db" depart="176" departLane="free" departSpeed="random" />
    <vehicle id="400081" type="Raleigh" route="gh" depart="176" departLane="free" departSpeed="random" />
    <vehicle id="400082" type="Raleigh" route="da" depart="177" departLane="free" departSpeed="random" />
    <vehicle id="400083" type="Raleigh" route="lk" depart="178" departLane="free" departSpeed="random" />
    <vehicle id="400084" type="Raleigh" route="gh" depart="179" departLane="free" departSpeed="random" />
    <vehicle id="400085" type="Raleigh" route="kl" depart="185" departLane="free" departSpeed="random" />
    <vehicle id="400086" type="Raleigh" route="ba" depart="187" departLane="free" departSpeed="random" />
    <vehicle id="400087" type="Raleigh" route="ji" depart="188" departLane="free" departSpeed="random" />
    <vehicle id="400088" type="Raleigh" route="ac" depart="189" departLane="free" departSpeed="random" />
    <vehicle id="400089" type="Raleigh" route="fe" depart="189" departLane="free" departSpeed="random" />
    <vehicle id="400090" type="Raleigh" route="ab" depart="190" departLane="free" departSpeed="random" />
    <vehicle id="400091" type="Raleigh" route="lk" depart="193" departLane="free" departSpeed="random" />
    <vehicle id="400092" type="Raleigh" route="bl" depart="195" departLane="free" departSpeed="random" />
    <vehicle id="400093" type="Raleigh" route="cd" depart="195" departLane="free" departSpeed="random" />
    <vehicle id="400094" type="Raleigh" route="ij" depart="196" departLane="free" departSpeed="random" />
    <vehicle id="400095" type="Raleigh" route="ef" depart="199" departLane="free" departSpeed="random" />
    <vehicle id="400096" type="Raleigh" route="ba" depart="201" departLane="free" departSpeed="random" />
    <vehicle id="400097" type="Raleigh" route="ba" depart="203" departLane="free" departSpeed="random" />
    <vehicle id="400098" type="Raleigh" route="cd" depart="206" departLane="free" departSpeed="random" />
    <vehicle id="400099" type="Raleigh" route="kl" depart="207" departLane="free" departSpeed="random" />
    <vehicle id="400100" type="Raleigh" route="ab" depart="210" departLane="free" departSpeed="random" />
    <vehicle id="400101" type="Raleigh" route="dc" depart="211" departLane="free" departSpeed="random" />
    <vehicle id="400102" type="Raleigh" route="ba" depart="213" departLane="free" departSpeed="random" />
    <vehicle id="400103" type="Raleigh" route="ba" depart="215" departLane="free" departSpeed="random" />
    <vehicle id="400104" type="Raleigh" route="kl" depart="215" departLane="free" departSpeed="random" />
    <vehicle id="400105" type="Raleigh" route="hg" depart="216" departLane="free" departSpeed="random" />
    <vehicle id="400106" type="Raleigh" route="cd" depart="221" departLane="free" departSpeed="random" />
    <vehicle id="400107" type="Raleigh" route="bk" depart="225" departLane="free" departSpeed="random" />
    <vehicle id="400108" type="Raleigh" route="ab" depart="228" departLane="free" departSpeed="random" />
    <vehicle id="400109" type="Raleigh" route="ba" depart="228" departLane="free" departSpeed="random" />
    <vehicle id="400110" type="Raleigh" route="lb" depart="228" departLane="free" departSpeed="random" />
    <vehicle id="400111" type="Raleigh" route="bk" depart="232" departLane="free" departSpeed="random" />
    <vehicle id="400112" type="Raleigh" route="lk" depart="232" departLane="free" departSpeed="random" />
    <vehicle id="400113" type="Raleigh" route="ba" depart="233" departLane="free" departSpeed="random" />
    <vehicle id="400114" type="Raleigh" route="cd" depart="233" departLane="free" departSpeed="random" />
    <vehicle id="400115" type="Raleigh" route="ag" depart="234" departLane="free" departSpeed="random" />
    <vehicle id="400116" type="Raleigh" route="ji" depart="238" departLane="free" departSpeed="random" />
    <vehicle id="400117" type="Raleigh" route="ji" depart="239" departLane="free" departSpeed="random" />
    <vehicle id="400118" type="Raleigh" route="lb" depart="239" departLane="free" departSpeed="random" />
    <vehicle id="400119" type="Raleigh" route="cd" depart="241" departLane="free" departSpeed="random" />
    <vehicle id="400120" type="Raleigh" route="ij" depart="242" departLane="free" departSpeed="random" />
    <vehicle id="400121" type="Raleigh" route="ba" depart="249" departLane="free" departSpeed="random" />
    <vehicle id="400122" type="Raleigh" route="ac" depart="250" departLane="free" departSpeed="random" />
    <vehicle id="400123" type="Raleigh" route="ba" depart="251" departLane="free" departSpeed="random" />
    <vehicle id="400124" type="Raleigh" route="bk" depart="253" departLane="free" departSpeed="random" />
    <vehicle id="400125" type="Raleigh" route="ef" depart="253" departLane="free" departSpeed="random" />
    <vehicle id="400126" type="Raleigh" route="ab" depart="254" departLane="free" departSpeed="random" />
    <vehicle id="400127" type="Raleigh" route="ab" depart="256" departLane="free" departSpeed="random" />
    <vehicle id="400128" type="Raleigh" route="ba" depart="256" departLane="free" departSpeed="random" />
    <vehicle id="400129" type="Raleigh" route="kl" depart="265" departLane="free" departSpeed="random" />
    <vehicle id="400130" type="Raleigh" route="ef" depart="268" departLane="free" departSpeed="random" />
    <vehicle id="400131" type="Raleigh" route="ab" depart="269" departLane="free" departSpeed="random" />
    <vehicle id="400132" type="Raleigh" route="ij" depart="269" departLane="free" departSpeed="random" />
    <vehicle id="400133" type="Raleigh" route="ab" depart="272" departLane="free" departSpeed="random" />
    <vehicle id="400134" type="Raleigh" route="ab" depart="280" departLane="free" departSpeed="random" />
    <vehicle id="400135" type="Raleigh" route="bk" depart="280" departLane="free" departSpeed="random" />
    <vehicle id="400136" type="Raleigh" route="fe" depart="280" departLane="free" departSpeed="random" />
    <vehicle id="400137" type="Raleigh" route="ba" depart="281" departLane="free" departSpeed="random" />
    <vehicle id="400138" type="Raleigh" route="ba" depart="282" departLane="free" departSpeed="random" />
    <vehicle id="400139" type="Raleigh" route="lk" depart="282" departLane="free" departSpeed="random" />
    <vehicle id="400140" type="Raleigh" route="ad" depart="286" departLane="free" departSpeed="random" />
    <vehicle id="400141" type="Raleigh" route="ab" depart="287" departLane="free" departSpeed="random" />
    <vehicle id="400142" type="Raleigh" route="cd" depart="291" departLane="free" departSpeed="random" />
    <vehicle id="400143" type="Raleigh" route="fe" depart="292" departLane="free" departSpeed="random" />
    <vehicle id="400144" type="Raleigh" route="ba" depart="299" departLane="free" departSpeed="random" />
    <vehicle id="400145" type="Raleigh" route="ab" depart="301" departLane="free" departSpeed="random" />
    <vehicle id="400146" type="Raleigh" route="al" depart="302" departLane="free" departSpeed="random" />
    <vehicle id="400147" type="Raleigh" route="ji" depart="303" departLane="free" departSpeed="random" />
    <vehicle id="400148" type="Raleigh" route="gh" depart="306" departLane="free" departSpeed="random" />
    <vehicle id="400149" type="Raleigh" route="ij" depart="308" departLane="free" departSpeed="random" />
    <vehicle id="400150" type="Raleigh" route="ga" depart="309" departLane="free" departSpeed="random" />
    <vehicle id="400151" type="Raleigh" route="kl" depart="314" departLane="free" departSpeed="random" />
    <vehicle id="400152" type="Raleigh" route="da" depart="315" departLane="free" departSpeed="random" />
    <vehicle id="400153" type="Raleigh" route="ac" depart="316" departLane="free" departSpeed="random" />
    <vehicle id="400154" type="Raleigh" route="ji" depart="316" departLane="free" departSpeed="random" />
    <vehicle id="400155" type="Raleigh" route="ab" depart="317" departLane="free" departSpeed="random" />
    <vehicle id="400156" type="Raleigh" route="kl" depart="321" departLane="free" departSpeed="random" />
    <vehicle id="400157" type="Raleigh" route="dc" depart="323" departLane="free" departSpeed="random" />
    <vehicle id="400158" type="Raleigh" route="kl" depart="324" departLane="free" departSpeed="random" />
    <vehicle id="400159" type="Raleigh" route="ad" depart="326" departLane="free" departSpeed="random" />
    <vehicle id="400160" type="Raleigh" route="hg" depart="327" departLane="free" departSpeed="random" />
    <vehicle id="400161" type="Raleigh" route="da" depart="330" departLane="free" departSpeed="random" />
    <vehicle id="400162" type="Raleigh" route="ga" depart="332" departLane="free" departSpeed="random" />
    <vehicle id="400163" type="Raleigh" route="fe" depart="335" departLane="free" departSpeed="random" />
    <vehicle id="400164" type="Raleigh" route="be" depart="339" departLane="free" departSpeed="random" />
    <vehicle id="400165" type="Raleigh" route="hb" depart="339" departLane="free" departSpeed="random" />
    <vehicle id="400166" type="Raleigh" route="ea" depart="341" departLane="free" departSpeed="random" />
    <vehicle id="400167" type="Raleigh" route="ab" depart="343" departLane="free" departSpeed="random" />
    <vehicle id="400168" type="Raleigh" route="bl" depart="343" departLane="free" departSpeed="random" />
    <vehicle id="400169" type="Raleigh" route="lk" depart="346" departLane="free" departSpeed="random" />
    <vehicle id="400170" type="Raleigh" route="ef" depart="348" departLane="free" departSpeed="random" />
    <vehicle id="400171" type="Raleigh" route="fe" depart="348" departLane="free" departSpeed="random" />
    <vehicle id="400172" type="Raleigh" route="ac" depart="349" departLane="free" departSpeed="random" />
    <vehicle id="400173" type="Raleigh" route="dc" depart="350" departLane="free" departSpeed="random" />
    <vehicle id="400174" type="Raleigh" route="ab" depart="352" departLane="free" departSpeed="random" />
    <vehicle id="400175" type="Raleigh" route="jb" depart="356" departLane="free" departSpeed="random" />
    <vehicle id="400176" type="Raleigh" route="ab" depart="357" departLane="free" departSpeed="random" />
    <vehicle id="400177" type="Raleigh" route="ba" depart="357" departLane="free" departSpeed="random" />
    <vehicle id="400178" type="Raleigh" route="kl" depart="357" departLane="free" departSpeed="random" />
    <vehicle id="400179" type="Raleigh" route="fe" depart="360" departLane="free" departSpeed="random" />
    <vehicle id="400180" type="Raleigh" route="ba" depart="361" departLane="free" departSpeed="random" />
    <vehicle id="400181" type="Raleigh" route="ji" depart="361" departLane="free" departSpeed="random" />
    <vehicle id="400182" type="Raleigh" route="ab" depart="362" departLane="free" departSpeed="random" />
    <vehicle id="400183" type="Raleigh" route="ba" depart="362" departLane="free" departSpeed="random" />
    <vehicle id="400184" type="Raleigh" route="gh" depart="362" departLane="free" departSpeed="random" />
    <vehicle id="400185" type="Raleigh" route="ad" depart="365" departLane="free" departSpeed="random" />
    <vehicle id="400186" type="Raleigh" route="ab" depart="367" departLane="free" departSpeed="random" />
    <vehicle id="400187" type="Raleigh" route="ba" depart="367" departLane="free" departSpeed="random" />
    <vehicle id="400188" type="Raleigh" route="ba" depart="369" departLane="free" departSpeed="random" />
    <vehicle id="400189" type="Raleigh" route="hg" depart="369" departLane="free" departSpeed="random" />
    <vehicle id="400190" type="Raleigh" route="cd" depart="370" departLane="free" departSpeed="random" />
    <vehicle id="400191" type="Raleigh" route="gh" depart="371" departLane="free" departSpeed="random" />
    <vehicle id="400192" type="Raleigh" route="bk" depart="372" departLane="free" departSpeed="random" />
    <vehicle id="400193" type="Raleigh" route="dc" depart="378" departLane="free" departSpeed="random" />
    <vehicle id="400194" type="Raleigh" route="fe" depart="380" departLane="free" departSpeed="random" />
    <vehicle id="400195" type="Raleigh" route="ab" depart="381" departLane="free" departSpeed="random" />
    <vehicle id="400196" type="Raleigh" route="ab" depart="388" departLane="free" departSpeed="random" />
    <vehicle id="400197" type="Raleigh" route="dc" depart="389" departLane="free" departSpeed="random" />
    <vehicle id="400198" type="Raleigh" route="ij" depart="392" departLane="free" departSpeed="random" />
    <vehicle id="400199" type="Raleigh" route="gb" depart="396" departLane="free" departSpeed="random" />
    <vehicle id="400200" type="Raleigh" route="ka" depart="398" departLane="free" departSpeed="random" />
    <vehicle id="400201" type="Raleigh" route="bl" depart="406" departLane="free" departSpeed="random" />
    <vehicle id="400202" type="Raleigh" route="ac" depart="412" departLane="free" departSpeed="random" />
    <vehicle id="400203" type="Raleigh" route="ad" depart="413" departLane="free" departSpeed="random" />
    <vehicle id="400204" type="Raleigh" route="fe" depart="420" departLane="free" departSpeed="random" />
    <vehicle id="400205" type="Raleigh" route="ad" depart="421" departLane="free" departSpeed="random" />
    <vehicle id="400206" type="Raleigh" route="ba" depart="422" departLane="free" departSpeed="random" />
    <vehicle id="400207" type="Raleigh" route="hg" depart="425" departLane="free" departSpeed="random" />
    <vehicle id="400208" type="Raleigh" route="ji" depart="426" departLane="free" departSpeed="random" />
    <vehicle id="400209" type="Raleigh" route="fe" depart="428" departLane="free" departSpeed="random" />
    <vehicle id="400210" type="Raleigh" route="ab" depart="434" departLane="free" departSpeed="random" />
    <vehicle id="400211" type="Raleigh" route="bg" depart="434" departLane="free" departSpeed="random" />
    <vehicle id="400212" type="Raleigh" route="ba" depart="435" departLane="free" departSpeed="random" />
    <vehicle id="400213" type="Raleigh" route="cd" depart="436" departLane="free" departSpeed="random" />
    <vehicle id="400214" type="Raleigh" route="ba" depart="437" departLane="free" departSpeed="random" />
    <vehicle id="400215" type="Raleigh" route="cd" depart="439" departLane="free" departSpeed="random" />
    <vehicle id="400216" type="Raleigh" route="ba" depart="441" departLane="free" departSpeed="random" />
    <vehicle id="400217" type="Raleigh" route="gh" depart="441" departLane="free" departSpeed="random" />
    <vehicle id="400218" type="Raleigh" route="ij" depart="441" departLane="free" departSpeed="random" />
    <vehicle id="400219" type="Raleigh" route="ba" depart="445" departLane="free" departSpeed="random" />
    <vehicle id="400220" type="Raleigh" route="bl" depart="449" departLane="free" departSpeed="random" />
    <vehicle id="400221" type="Raleigh" route="ac" depart="454" departLane="free" departSpeed="random" />
    <vehicle id="400222" type="Raleigh" route="ba" depart="456" departLane="free" departSpeed="random" />
    <vehicle id="400223" type="Raleigh" route="hg" depart="456" departLane="free" departSpeed="random" />
    <vehicle id="400224" type="Raleigh" route="ga" depart="457" departLane="free" departSpeed="random" />
    <vehicle id="400225" type="Raleigh" route="ad" depart="459" departLane="free" departSpeed="random" />
    <vehicle id="400226" type="Raleigh" route="fe" depart="460" departLane="free" departSpeed="random" />
    <vehicle id="400227" type="Raleigh" route="cd" depart="461" departLane="free" departSpeed="random" />
    <vehicle id="400228" type="Raleigh" route="ad" depart="466" departLane="free" departSpeed="random" />
    <vehicle id="400229" type="Raleigh" route="ij" depart="466" departLane="free" departSpeed="random" />
    <vehicle id="400230" type="Raleigh" route="ba" depart="467" departLane="free" departSpeed="random" />
    <vehicle id="400231" type="Raleigh" route="ga" depart="469" departLane="free" departSpeed="random" />
    <vehicle id="400232" type="Raleigh" route="fe" depart="473" departLane="free" departSpeed="random" />
    <vehicle id="400233" type="Raleigh" route="hg" depart="474" departLane="free" departSpeed="random" />
    <vehicle id="400234" type="Raleigh" route="ba" depart="476" departLane="free" departSpeed="random" />
    <vehicle id="400235" type="Raleigh" route="bk" depart="481" departLane="free" departSpeed="random" />
    <vehicle id="400236" type="Raleigh" route="bk" depart="486" departLane="free" departSpeed="random" />
    <vehicle id="400237" type="Raleigh" route="ba" depart="488" departLane="free" departSpeed="random" />
    <vehicle id="400238" type="Raleigh" route="ba" depart="489" departLane="free" departSpeed="random" />
    <vehicle id="400239" type="Raleigh" route="lb" depart="489" departLane="free" departSpeed="random" />
    <vehicle id="400240" type="Raleigh" route="ba" depart="491" departLane="free" departSpeed="random" />
    <vehicle id="400241" type="Raleigh" route="dc" depart="492" departLane="free" departSpeed="random" />
    <vehicle id="400242" type="Raleigh" route="cd" depart="494" departLane="free" departSpeed="random" />
    <vehicle id="400243" type="Raleigh" route="ab" depart="495" departLane="free" departSpeed="random" />
    <vehicle id="400244" type="Raleigh" route="ji" depart="497" departLane="free" departSpeed="random" />
    <vehicle id="400245" type="Raleigh" route="ab" depart="500" departLane="free" departSpeed="random" />