<routes>

    <vType id="bus" accel="2.6" decel="4.5" sigma="0.5" length="12" minGap="3" maxSpeed="70" color="1,0,0" guiShape="bus" vClass="bus" emissionClass="HBEFA3/Bus"/>

    <vehicle id="bus_0" depart="0" departPos="0" departLane="best" arrivalPos="-1" type="bus">
        <route edges="a_1 1_2 2_3 3_4 4_5 5_6 6_7 7_20 20_17 17_21 21_22 22_18 18_23 23_24 24_19 19_25 25_8 8_b"/>
        <stop busStop="Stop#1" duration="20"/>
        <stop busStop="Stop#2" duration="20"/>
        <stop busStop="Stop#3" duration="20"/>
        <stop busStop="Stop#4" duration="20"/>
        <stop busStop="Stop#5" duration="20"/>
    </vehicle>
    <vehicle id="bus_1" depart="0" departPos="0" departLane="best" arrivalPos="-1" type="bus">
        <route edges="b_8 8_25 25_19 19_24 24_23 23_18 18_22 22_21 21_17 17_20 20_7 7_6 6_5 5_4 4_3 3_2 2_1 1_a"/>
        <stop busStop="Stop#6" duration="20"/>
        <stop busStop="Stop#7" duration="20"/>
        <stop busStop="Stop#8" duration="20"/>
        <stop busStop="Stop#9" duration="20"/>
        <stop busStop="Stop#10" duration="20"/>
    </vehicle>

    <vehicle id="bus_2" depart="900.0" departPos="0" departLane="best" arrivalPos="-1" type="bus">
        <route edges="a_1 1_2 2_3 3_4 4_5 5_6 6_7 7_20 20_17 17_21 21_22 22_18 18_23 23_24 24_19 19_25 25_8 8_b"/>
        <stop busStop="Stop#1" duration="20"/>
        <stop busStop="Stop#2" duration="20"/>
        <stop busStop="Stop#3" duration="20"/>
        <stop busStop="Stop#4" duration="20"/>
        <stop busStop="Stop#5" duration="20"/>
    </vehicle>
    <vehicle id="bus_3" depart="900.0" departPos="0" departLane="best" arrivalPos="-1" type="bus">
        <route edges="b_8 8_25 25_19 19_24 24_23 23_18 18_22 22_21 21_17 17_20 20_7 7_6 6_5 5_4 4_3 3_2 2_1 1_a"/>
        <stop busStop="Stop#6" duration="20"/>
        <stop busStop="Stop#7" duration="20"/>
        <stop busStop="Stop#8" duration="20"/>
        <stop busStop="Stop#9" duration="20"/>
        <stop busStop="Stop#10" duration="20"/>
    </vehicle>

    <vehicle id="bus_4" depart="1800.0" departPos="0" departLane="best" arrivalPos="-1" type="bus">
        <route edges="a_1 1_2 2_3 3_4 4_5 5_6 6_7 7_20 20_17 17_21 21_22 22_18 18_23 23_24 24_19 19_25 25_8 8_b"/>
        <stop busStop="Stop#1" duration="20"/>
        <stop busStop="Stop#2" duration="20"/>
        <stop busStop="Stop#3" duration="20"/>
        <stop busStop="Stop#4" duration="20"/>
        <stop busStop="Stop#5" duration="20"/>
    </vehicle>
    <vehicle id="bus_5" depart="1800.0" departPos="0" departLane="best" arrivalPos="-1" type="bus">
        <route edges="b_8 8_25 25_19 19_24 24_23 23_18 18_22 22_21 21_17 17_20 20_7 7_6 6_5 5_4 4_3 3_2 2_1 1_a"/>
        <stop busStop="Stop#6" duration="20"/>
        <stop busStop="Stop#7" duration="20"/>
        <stop busStop="Stop#8" duration="20"/>
        <stop busStop="Stop#9" duration="20"/>
        <stop busStop="Stop#10" duration="20"/>
    </vehicle>

    <vehicle id="bus_6" depart="2700.0" departPos="0" departLane="best" arrivalPos="-1" type="bus">
        <route edges="a_1 1_2 2_3 3_4 4_5 5_6 6_7 7_20 20_17 17_21 21_22 22_18 18_23 23_24 24_19 19_25 25_8 8_b"/>
        <stop busStop="Stop#1" duration="20"/>
        <stop busStop="Stop#2" duration="20"/>
        <stop busStop="Stop#3" duration="20"/>
        <stop busStop="Stop#4" duration="20"/>
        <stop busStop="Stop#5" duration="20"/>
    </vehicle>
    <vehicle id="bus_7" depart="2700.0" departPos="0" departLane="best" arrivalPos="-1" type="bus">
        <route edges="b_8 8_25 25_19 19_24 24_23 23_18 18_22 22_21 21_17 17_20 20_7 7_6 6_5 5_4 4_3 3_2 2_1 1_a"/>
        <stop busStop="Stop#6" duration="20"/>
        <stop busStop="Stop#7" duration="20"/>
        <stop busStop="Stop#8" duration="20"/>
        <stop busStop="Stop#9" duration="20"/>
        <stop busStop="Stop#10" duration="20"/>
    </vehicle>

</routes>
