<routes>

    <vType id="Berliner" accel="0.5" decel="1.0" sigma="0.5" length="0.5" maxSpeed="1.5" minGap="1.0" color="255,165,0" guiShape="pedestrian" width="0.5" vClass="pedestrian"/>  

    <!-- Horizontal pedestrian routes (through the corridor) -->
    <!--  Horizontal Arterial - 5 Intersections @ 1km spacing -->
    <!-- 


                    c              e              g              i              k
                    │              │              │              │              │
                    9             13             26             30             34
                    │              │              │              │              │
                   10             14             27             31             35
                    │              │              │              │              │
   a────1────2────[3]────4────5──[6]────7───20─[17]───21───22─[18]───23───24─[19]───25────8────b
                    │              │              │              │              │
                   11             15             28             32             36
                    │              │              │              │              │
                   12             16             29             33             37
                    │              │              │              │              │
                    d              f              h              j              l


   x=-1100        x=0          x=1000         x=2000         x=3000         x=4000        x=5100
   (Entry)      TLS-1          TLS-2          TLS-3          TLS-4          TLS-5         (Exit)

    -->

    <route id="we1" edges="a_3 3_6"/>
    <route id="we2" edges="3_6 6_17"/>
    <route id="we3" edges="6_17 17_18"/>
    <route id="we4" edges="17_18 18_19"/>
    <route id="we5" edges="18_19 19_b"/>
    
    <route id="ew1" edges="b_19 19_18"/>
    <route id="ew2" edges="19_18 18_17"/>
    <route id="ew3" edges="18_17 17_6"/>
    <route id="ew4" edges="17_6 6_3"/>
    <route id="ew5" edges="6_3 3_a"/>
    
    <!-- Vertical pedestrian routes (crossing at each TLS) -->
    <route id="sn1" edges="c_3 3_d"/>
    <route id="ns1" edges="d_3 3_c"/>
    <route id="sn2" edges="e_6 6_f"/>
    <route id="ns2" edges="f_6 6_e"/>
    <route id="sn3" edges="g_17 17_h"/>
    <route id="ns3" edges="h_17 17_g"/>
    <route id="sn4" edges="i_18 18_j"/>
    <route id="ns4" edges="j_18 18_i"/>
    <route id="sn5" edges="k_19 19_l"/>
    <route id="ns5" edges="l_19 19_k"/>
                    
        
    <person id="800000" depart="0" departPos="random">
        <walk route="we4"/>
    </person>
    <person id="800001" depart="1" departPos="random">
        <walk route="ew2"/>
    </person>
    <person id="800002" depart="2" departPos="random">
        <walk route="we3"/>
    </person>
    <person id="800003" depart="2" departPos="random">
        <walk route="ew1"/>
    </person>
    <person id="800004" depart="3" departPos="random">
        <walk route="ew3"/>
    </person>
    <person id="800005" depart="4" departPos="random">
        <walk route="ew3"/>
    </person>
    <person id="800006" depart="4" departPos="random">
        <walk route="ew5"/>
    </person>
    <person id="800007" depart="5" departPos="random">
        <walk route="we2"/>
    </person>
    <person id="800008" depart="5" departPos="random">
        <walk route="ew5"/>
    </person>
    <person id="800009" depart="5" departPos="random">
        <walk route="sn3"/>
    </person>
    <person id="800010" depart="6" departPos="random">
        <walk route="we1"/>
    </person>
    <person id="800011" depart="6" departPos="random">
        <walk route="ew5"/>
    </person>
    <person id="800012" depart="7" departPos="random">
        <walk route="we5"/>
    </person>
    <person id="800013" depart="8" departPos="random">
        <walk route="we1"/>
    </person>
    <person id="800014" depart="8" departPos="random">
        <walk route="ew1"/>
    </person>
    <person id="800015" depart="9" departPos="random">
        <walk route="we4"/>
    </person>
    <person id="800016" depart="12" departPos="random">
        <walk route="we5"/>
    </person>
    <person id="800017" depart="12" departPos="random">
        <walk route="sn3"/>
    </person>
    <person id="800018" depart="13" departPos="random">
        <walk route="we1"/>
    </person>
    <person id="800019" depart="14" departPos="random">
        <walk route="we2"/>
    </person>
    <person id="800020" depart="16" departPos="random">
        <walk route="we3"/>
    </person>
    <person id="800021" depart="16" departPos="random">
        <walk route="ew5"/>
    </person>
    <person id="800022" depart="17" departPos="random">
        <walk route="we4"/>
    </person>
    <person id="800023" depart="17" departPos="random">
        <walk route="ew2"/>
    </person>
    <person id="800024" depart="18" departPos="random">
        <walk route="ew3"/>
    </person>
    <person id="800025" depart="20" departPos="random">
        <walk route="ns5"/>
    </person>
    <person id="800026" depart="21" departPos="random">
        <walk route="ew3"/>
    </person>
    <person id="800027" depart="22" departPos="random">
        <walk route="ew1"/>
    </person>
    <person id="800028" depart="23" departPos="random">
        <walk route="ew5"/>
    </person>
    <person id="800029" depart="23" departPos="random">
        <walk route="ns1"/>
    </person>
    <person id="800030" depart="24" departPos="random">
        <walk route="we2"/>
    </person>
    <person id="800031" depart="25" departPos="random">
        <walk route="we5"/>
    </person>
    <person id="800032" depart="25" departPos="random">
        <walk route="sn1"/>
    </person>
    <person id="800033" depart="26" departPos="random">
        <walk route="ew5"/>
    </person>
    <person id="800034" depart="27" departPos="random">
        <walk route="we1"/>
    </person>
    <person id="800035" depart="28" departPos="random">
        <walk route="we2"/>
    </person>
    <person id="800036" depart="30" departPos="random">
        <walk route="we3"/>
    </person>
    <person id="800037" depart="30" departPos="random">
        <walk route="ew1"/>
    </person>
    <person id="800038" depart="30" departPos="random">
        <walk route="ew3"/>
    </person>
    <person id="800039" depart="31" departPos="random">
        <walk route="we4"/>
    </person>
    <person id="800040" depart="31" departPos="random">
        <walk route="ew2"/>
    </person>
    <person id="800041" depart="32" departPos="random">
        <walk route="ew4"/>
    </person>
    <person id="800042" depart="34" departPos="random">
        <walk route="we4"/>
    </person>
    <person id="800043" depart="34" departPos="random">
        <walk route="ew1"/>
    </person>
    <person id="800044" depart="34" departPos="random">
        <walk route="ew4"/>
    </person>
    <person id="800045" depart="36" departPos="random">
        <walk route="we3"/>
    </person>
    <person id="800046" depart="36" departPos="random">
        <walk route="ew1"/>
    </person>
    <person id="800047" depart="36" departPos="random">
        <walk route="ew5"/>
    </person>
    <person id="800048" depart="38" departPos="random">
        <walk route="we1"/>
    </person>
    <person id="800049" depart="39" departPos="random">
        <walk route="sn3"/>
    </person>
    <person id="800050" depart="40" departPos="random">
        <walk route="ew1"/>
    </person>
    <person id="800051" depart="41" departPos="random">
        <walk route="we2"/>
    </person>
    <person id="800052" depart="43" departPos="random">
        <walk route="ew2"/>
    </person>
    <person id="800053" depart="45" departPos="random">
        <walk route="we2"/>
    </person>
    <person id="800054" depart="45" departPos="random">
        <walk route="ew2"/>
    </person>
    <person id="800055" depart="46" departPos="random">
        <walk route="we1"/>
    </person>
    <person id="800056" depart="46" departPos="random">
        <walk route="ew4"/>
    </person>
    <person id="800057" depart="46" departPos="random">
        <walk route="ns4"/>
    </person>
    <person id="800058" depart="46" departPos="random">
        <walk route="ns5"/>
    </person>
    <person id="800059" depart="47" departPos="random">
        <walk route="sn4"/>
    </person>
    <person id="800060" depart="48" departPos="random">
        <walk route="we1"/>
    </person>
    <person id="800061" depart="50" departPos="random">
        <walk route="ew5"/>
    </person>
    <person id="800062" depart="50" departPos="random">
        <walk route="sn1"/>
    </person>
    <person id="800063" depart="51" departPos="random">
        <walk route="ew3"/>
    </person>
    <person id="800064" depart="52" departPos="random">
        <walk route="ew1"/>
    </person>
    <person id="800065" depart="52" departPos="random">
        <walk route="ew3"/>
    </person>
    <person id="800066" depart="54" departPos="random">
        <walk route="ew2"/>
    </person>
    <person id="800067" depart="55" departPos="random">
        <walk route="ew3"/>
    </person>
    <person id="800068" depart="56" departPos="random">
        <walk route="we3"/>
    </person>
    <person id="800069" depart="56" departPos="random">
        <walk route="we5"/>
    </person>
    <person id="800070" depart="56" departPos="random">
        <walk route="ns4"/>
    </person>
    <person id="800071" depart="57" departPos="random">
        <walk route="ew3"/>
    </person>
    <person id="800072" depart="57" departPos="random">
        <walk route="ns3"/>
    </person>
    <person id="800073" depart="58" departPos="random">
        <walk route="we2"/>
    </person>
    <person id="800074" depart="58" departPos="random">
        <walk route="ew3"/>
    </person>
    <person id="800075" depart="59" departPos="random">
        <walk route="ew1"/>
    </person>
    <person id="800076" depart="61" departPos="random">
        <walk route="ew2"/>
    </person>
    <person id="800077" depart="61" departPos="random">
        <walk route="ew4"/>
    </person>
    <person id="800078" depart="63" departPos="random">
        <walk route="ew3"/>
    </person>
    <person id="800079" depart="64" departPos="random">
        <walk route="we3"/>
    </person>
    <person id="800080" depart="64" departPos="random">
        <walk route="ns3"/>
    </person>
    <person id="800081" depart="64" departPos="random">
        <walk route="ns5"/>
    </person>
    <person id="800082" depart="66" departPos="random">
        <walk route="we1"/>
    </person>
    <person id="800083" depart="66" departPos="random">
        <walk route="ew2"/>
    </person>
    <person id="800084" depart="67" departPos="random">
        <walk route="we2"/>
    </person>
    <person id="800085" depart="67" departPos="random">
        <walk route="we5"/>
    </person>
    <person id="800086" depart="67" departPos="random">
        <walk route="ns5"/>
    </person>
    <person id="800087" depart="68" departPos="random">
        <walk route="ew5"/>
    </person>
    <person id="800088" depart="68" departPos="random">
        <walk route="sn1"/>
    </person>
    <person id="800089" depart="69" departPos="random">
        <walk route="we1"/>
    </person>
    <person id="800090" depart="70" departPos="random">
        <walk route="ew1"/>
    </person>
    <person id="800091" depart="71" departPos="random">
        <walk route="ew2"/>
    </person>
    <person id="800092" depart="72" departPos="random">
        <walk route="we1"/>
    </person>
    <person id="800093" depart="72" departPos="random">
        <walk route="ns4"/>
    </person>
    <person id="800094" depart="73" departPos="random">
        <walk route="we4"/>
    </person>
    <person id="800095" depart="73" departPos="random">
        <walk route="ew1"/>
    </person>
    <person id="800096" depart="74" departPos="random">
        <walk route="ew1"/>
    </person>
    <person id="800097" depart="75" departPos="random">
        <walk route="we2"/>
    </person>
    <person id="800098" depart="75" departPos="random">
        <walk route="we4"/>
    </person>
    <person id="800099" depart="76" departPos="random">
        <walk route="ns5"/>
    </person>
    <person id="800100" depart="77" departPos="random">
        <walk route="we5"/>
    </person>
    <person id="800101" depart="77" departPos="random">
        <walk route="ew1"/>
    </person>
    <person id="800102" depart="78" departPos="random">
        <walk route="we2"/>
    </person>
    <person id="800103" depart="78" departPos="random">
        <walk route="we4"/>
    </person>
    <person id="800104" depart="79" departPos="random">
        <walk route="we5"/>
    </person>
    <person id="800105" depart="80" departPos="random">
        <walk route="ew4"/>
    </person>
    <person id="800106" depart="81" departPos="random">
        <walk route="we3"/>
    </person>
    <person id="800107" depart="82" departPos="random">
        <walk route="we3"/>
    </person>
    <person id="800108" depart="82" departPos="random">
        <walk route="ew2"/>
    </person>
    <person id="800109" depart="82" departPos="random">
        <walk route="ns2"/>
    </person>
    <person id="800110" depart="85" departPos="random">
        <walk route="we2"/>
    </person>
    <person id="800111" depart="86" departPos="random">
        <walk route="we4"/>
    </person>
    <person id="800112" depart="86" departPos="random">
        <walk route="ew4"/>
    </person>
    <person id="800113" depart="87" departPos="random">
        <walk route="we1"/>
    </person>
    <person id="800114" depart="87" departPos="random">
        <walk route="ew5"/>
    </person>
    <person id="800115" depart="89" departPos="random">
        <walk route="we5"/>
    </person>
    <person id="800116" depart="89" departPos="random">
        <walk route="ew2"/>
    </person>
    <person id="800117" depart="89" departPos="random">
        <walk route="ew4"/>
    </person>
    <person id="800118" depart="90" departPos="random">
        <walk route="ew5"/>
    </person>
    <person id="800119" depart="90" departPos="random">
        <walk route="sn1"/>
    </person>
    <person id="800120" depart="91" departPos="random">
        <walk route="we4"/>
    </person>
    <person id="800121" depart="95" departPos="random">
        <walk route="we5"/>
    </person>
    <person id="800122" depart="95" departPos="random">
        <walk route="ew4"/>
    </person>
    <person id="800123" depart="96" departPos="random">
        <walk route="we1"/>
    </person>
    <person id="800124" depart="96" departPos="random">
        <walk route="we3"/>
    </person>
    <person id="800125" depart="97" departPos="random">
        <walk route="ew5"/>
    </person>
    <person id="800126" depart="97" departPos="random">
        <walk route="ns1"/>
    </person>
    <person id="800127" depart="98" departPos="random">
        <walk route="we4"/>
    </person>
    <person id="800128" depart="100" departPos="random">
        <walk route="we1"/>
    </person>
    <person id="800129" depart="100" departPos="random">
        <walk route="ew2"/>
    </person>
    <person id="800130" depart="100" departPos="random">
        <walk route="ew4"/>
    </person>
    <person id="800131" depart="101" departPos="random">
        <walk route="ew2"/>
    </person>
    <person id="800132" depart="101" departPos="random">
        <walk route="sn5"/>
    </person>
    <person id="800133" depart="102" departPos="random">
        <walk route="we2"/>
    </person>
    <person id="800134" depart="102" departPos="random">
        <walk route="we3"/>
    </person>
    <person id="800135" depart="102" departPos="random">
        <walk route="we5"/>
    </person>
    <person id="800136" depart="103" departPos="random">
        <walk route="we5"/>
    </person>
    <person id="800137" depart="106" departPos="random">
        <walk route="we1"/>
    </person>
    <person id="800138" depart="106" departPos="random">
        <walk route="ew4"/>
    </person>
    <person id="800139" depart="106" departPos="random">
        <walk route="ew5"/>
    </person>
    <person id="800140" depart="107" departPos="random">
        <walk route="we5"/>
    </person>
    <person id="800141" depart="107" departPos="random">
        <walk route="sn2"/>
    </person>
    <person id="800142" depart="107" departPos="random">
        <walk route="sn4"/>
    </person>
    <person id="800143" depart="108" departPos="random">
        <walk route="ew5"/>
    </person>
    <person id="800144" depart="109" departPos="random">
        <walk route="we3"/>
    </person>
    <person id="800145" depart="109" departPos="random">
        <walk route="ew1"/>
    </person>
    <person id="800146" depart="111" departPos="random">
        <walk route="we5"/>
    </person>
    <person id="800147" depart="112" departPos="random">
        <walk route="we1"/>
    </person>
    <person id="800148" depart="112" departPos="random">
        <walk route="we2"/>
    </person>
    <person id="800149" depart="112" departPos="random">
        <walk route="we4"/>
    </person>
    <person id="800150" depart="115" departPos="random">
        <walk route="we1"/>
    </person>
    <person id="800151" depart="115" departPos="random">
        <walk route="we3"/>
    </person>
    <person id="800152" depart="116" departPos="random">
        <walk route="we3"/>
    </person>
    <person id="800153" depart="117" departPos="random">
        <walk route="we3"/>
    </person>
    <person id="800154" depart="118" departPos="random">
        <walk route="we3"/>
    </person>
    <person id="800155" depart="118" departPos="random">
        <walk route="ew1"/>
    </person>
    <person id="800156" depart="118" departPos="random">
        <walk route="sn3"/>
    </person>
    <person id="800157" depart="118" departPos="random">
        <walk route="ns3"/>
    </person>
    <person id="800158" depart="119" departPos="random">
        <walk route="ew2"/>
    </person>
    <person id="800159" depart="119" departPos="random">
        <walk route="sn3"/>
    </person>
    <person id="800160" depart="120" departPos="random">
        <walk route="we1"/>
    </person>
    <person id="800161" depart="121" departPos="random">
        <walk route="we5"/>
    </person>
    <person id="800162" depart="121" departPos="random">
        <walk route="ew3"/>
    </person>
    <person id="800163" depart="121" departPos="random">
        <walk route="ns2"/>
    </person>
    <person id="800164" depart="122" departPos="random">
        <walk route="ew1"/>
    </person>
    <person id="800165" depart="122" departPos="random">
        <walk route="ew3"/>
    </person>
    <person id="800166" depart="123" departPos="random">
        <walk route="ew1"/>
    </person>
    <person id="800167" depart="123" departPos="random">
        <walk route="ew5"/>
    </person>
    <person id="800168" depart="124" departPos="random">
        <walk route="we5"/>
    </person>
    <person id="800169" depart="125" departPos="random">
        <walk route="we1"/>
    </person>
    <person id="800170" depart="125" departPos="random">
        <walk route="we5"/>
    </person>
    <person id="800171" depart="127" departPos="random">
        <walk route="ew1"/>
    </person>
    <person id="800172" depart="128" departPos="random">
        <walk route="ew2"/>
    </person>
    <person id="800173" depart="128" departPos="random">
        <walk route="sn3"/>
    </person>
    <person id="800174" depart="129" departPos="random">
        <walk route="we1"/>
    </person>
    <person id="800175" depart="130" departPos="random">
        <walk route="we2"/>
    </person>
    <person id="800176" depart="130" departPos="random">
        <walk route="we4"/>
    </person>
    <person id="800177" depart="130" departPos="random">
        <walk route="ew5"/>
    </person>
    <person id="800178" depart="131" departPos="random">
        <walk route="we1"/>
    </person>
    <person id="800179" depart="131" departPos="random">
        <walk route="ew5"/>
    </person>
    <person id="800180" depart="131" departPos="random">
        <walk route="ns1"/>
    </person>
    <person id="800181" depart="132" departPos="random">
        <walk route="we5"/>
    </person>
    <person id="800182" depart="132" departPos="random">
        <walk route="ew2"/>
    </person>
    <person id="800183" depart="133" departPos="random">
        <walk route="we5"/>
    </person>
    <person id="800184" depart="133" departPos="random">
        <walk route="ew1"/>
    </person>
    <person id="800185" depart="133" departPos="random">
        <walk route="ew2"/>
    </person>
    <person id="800186" depart="134" departPos="random">
        <walk route="we3"/>
    </person>
    <person id="800187" depart="134" departPos="random">
        <walk route="we4"/>
    </person>
    <person id="800188" depart="134" departPos="random">
        <walk route="ew5"/>
    </person>
    <person id="800189" depart="135" departPos="random">
        <walk route="ew3"/>
    </person>
    <person id="800190" depart="135" departPos="random">
        <walk route="ew4"/>
    </person>
    <person id="800191" depart="135" departPos="random">
        <walk route="ns3"/>
    </person>
    <person id="800192" depart="137" departPos="random">
        <walk route="ew3"/>
    </person>
    <person id="800193" depart="139" departPos="random">
        <walk route="we2"/>
    </person>
    <person id="800194" depart="140" departPos="random">
        <walk route="we1"/>
    </person>
    <person id="800195" depart="140" departPos="random">
        <walk route="ew4"/>
    </person>
    <person id="800196" depart="140" departPos="random">
        <walk route="ns3"/>
    </person>
    <person id="800197" depart="141" departPos="random">
        <walk route="ew4"/>
    </person>
    <person id="800198" depart="141" departPos="random">
        <walk route="ew5"/>
    </person>
    <person id="800199" depart="142" departPos="random">
        <walk route="we5"/>
    </person>
    <person id="800200" depart="142" departPos="random">
        <walk route="ew2"/>
    </person>
    <person id="800201" depart="142" departPos="random">
        <walk route="ew3"/>
    </person>
    <person id="800202" depart="144" departPos="random">
        <walk route="we3"/>
    </person>
    <person id="800203" depart="144" departPos="random">
        <walk route="ew2"/>
    </person>
    <person id="800204" depart="144" departPos="random">
        <walk route="ew4"/>
    </person>
    <person id="800205" depart="146" departPos="random">
        <walk route="we1"/>
    </person>
    <person id="800206" depart="146" departPos="random">
        <walk route="ns2"/>
    </person>
    <person id="800207" depart="147" departPos="random">
        <walk route="ew4"/>
    </person>
    <person id="800208" depart="148" departPos="random">
        <walk route="we1"/>
    </person>
    <person id="800209" depart="148" departPos="random">
        <walk route="we3"/>
    </person>
    <person id="800210" depart="148" departPos="random">
        <walk route="ew1"/>
    </person>
    <person id="800211" depart="149" departPos="random">
        <walk route="ew1"/>
    </person>
    <person id="800212" depart="149" departPos="random">
        <walk route="ew4"/>
    </person>
    <person id="800213" depart="149" departPos="random">
        <walk route="ew5"/>
    </person>
    <person id="800214" depart="150" departPos="random">
        <walk route="ew5"/>
    </person>
    <person id="800215" depart="151" departPos="random">
        <walk route="we2"/>
    </person>
    <person id="800216" depart="151" departPos="random">
        <walk route="ns2"/>
    </person>
    <person id="800217" depart="151" departPos="random">
        <walk route="ns5"/>
    </person>
    <person id="800218" depart="153" departPos="random">
        <walk route="ew4"/>
    </person>
    <person id="800219" depart="154" departPos="random">
        <walk route="ew1"/>
    </person>
    <person id="800220" depart="154" departPos="random">
        <walk route="sn2"/>
    </person>
    <person id="800221" depart="155" departPos="random">
        <walk route="ew4"/>
    </person>
    <person id="800222" depart="155" departPos="random">
        <walk route="sn5"/>
    </person>
    <person id="800223" depart="156" departPos="random">
        <walk route="ew2"/>
    </person>
    <person id="800224" depart="156" departPos="random">
        <walk route="ew5"/>
    </person>
    <person id="800225" depart="157" departPos="random">
        <walk route="we5"/>
    </person>
    <person id="800226" depart="160" departPos="random">
        <walk route="we4"/>
    </person>
    <person id="800227" depart="161" departPos="random">
        <walk route="ns2"/>
    </person>
    <person id="800228" depart="163" departPos="random">
        <walk route="we5"/>
    </person>
    <person id="800229" depart="163" departPos="random">
        <walk route="ew1"/>
    </person>
    <person id="800230" depart="163" departPos="random">
        <walk route="sn2"/>
    </person>
    <person id="800231" depart="164" departPos="random">
        <walk route="we3"/>
    </person>
    <person id="800232" depart="164" departPos="random">
        <walk route="we4"/>
    </person>
    <person id="800233" depart="164" departPos="random">
        <walk route="ew2"/>
    </person>
    <person id="800234" depart="165" departPos="random">
        <walk route="ew4"/>
    </person>
    <person id="800235" depart="167" departPos="random">
        <walk route="we1"/>
    </person>
    <person id="800236" depart="167" departPos="random">
        <walk route="ew2"/>
    </person>
    <person id="800237" depart="167" departPos="random">
        <walk route="ew3"/>
    </person>
    <person id="800238" depart="167" departPos="random">
        <walk route="ns2"/>
    </person>
    <person id="800239" depart="168" departPos="random">
        <walk route="ew2"/>
    </person>
    <person id="800240" depart="169" departPos="random">
        <walk route="ew2"/>
    </person>
    <person id="800241" depart="169" departPos="random">
        <walk route="ns3"/>
    </person>
    <person id="800242" depart="171" departPos="random">
        <walk route="we3"/>
    </person>
    <person id="800243" depart="171" departPos="random">
        <walk route="ew5"/>
    </person>
    <person id="800244" depart="172" departPos="random">
        <walk route="ew4"/>
    </person>
    <person id="800245" depart="172" departPos="random">
        <walk route="ew5"/>
    </person>
    <person id="800246" depart="173" departPos="random">
        <walk route="we4"/>
    </person>
    <person id="800247" depart="173" departPos="random">
        <walk route="ns3"/>
    </person>
    <person id="800248" depart="174" departPos="random">
        <walk route="sn2"/>
    </person>
    <person id="800249" depart="174" departPos="random">
        <walk route="ns3"/>
    </person>
    <person id="800250" depart="175" departPos="random">
        <walk route="we3"/>
    </person>
    <person id="800251" depart="176" departPos="random">
        <walk route="we2"/>
    </person>
    <person id="800252" depart="177" departPos="random">
        <walk route="sn4"/>
    </person>
    <person id="800253" depart="180" departPos="random">
        <walk route="ew4"/>
    </person>
    <person id="800254" depart="182" departPos="random">
        <walk route="ew5"/>
    </person>
    <person id="800255" depart="185" departPos="random">
        <walk route="we1"/>
    </person>
    <person id="800256" depart="185" departPos="random">
        <walk route="we5"/>
    </person>
    <person id="800257" depart="185" departPos="random">
        <walk route="ew3"/>
    </person>
    <person id="800258" depart="186" departPos="random">
        <walk route="ew2"/>
    </person>
    <person id="800259" depart="187" departPos="random">
        <walk route="we1"/>
    </person>
    <person id="800260" depart="188" departPos="random">
        <walk route="ew5"/>
    </person>
    <person id="800261" depart="189" departPos="random">
        <walk route="we5"/>
    </person>
    <person id="800262" depart="190" departPos="random">
        <walk route="we4"/>
    </person>
    <person id="800263" depart="191" departPos="random">
        <walk route="sn3"/>
    </person>
    <person id="800264" depart="192" departPos="random">
        <walk route="we3"/>
    </person>
    <person id="800265" depart="192" departPos="random">
        <walk route="we4"/>
    </person>
    <person id="800266" depart="194" departPos="random">
        <walk route="we1"/>
    </person>
    <person id="800267" depart="195" departPos="random">
        <walk route="ew2"/>
    </person>
    <person id="800268" depart="195" departPos="random">
        <walk route="ew4"/>
    </person>
    <person id="800269" depart="196" departPos="random">
        <walk route="we5"/>
    </person>
    <person id="800270" depart="196" departPos="random">
        <walk route="ew1"/>
    </person>
    <person id="800271" depart="197" departPos="random">
        <walk route="we2"/>
    </person>
    <person id="800272" depart="197" departPos="random">
        <walk route="we5"/>
    </person>
    <person id="800273" depart="197" departPos="random">
        <walk route="ew2"/>
    </person>
    <person id="800274" depart="199" departPos="random">
        <walk route="ew4"/>
    </person>
    <person id="800275" depart="200" departPos="random">
        <walk route="ew2"/>
    </person>
    <person id="800276" depart="201" departPos="random">
        <walk route="ew5"/>
    </person>
    <person id="800277" depart="202" departPos="random">
        <walk route="we5"/>
    </person>
    <person id="800278" depart="203" departPos="random">
        <walk route="we2"/>
    </person>