<routes>

    <vType id="Berliner" accel="0.5" decel="1.0" sigma="0.5" length="0.5" maxSpeed="1.5" minGap="1.0" color="255,165,0" guiShape="pedestrian" width="0.5" vClass="pedestrian"/>  

    <!-- Horizontal pedestrian routes (through the corridor) -->
    <route id="we1" edges="a_3 3_6"/>
    <route id="we2" edges="3_6 6_17"/>
    <route id="we3" edges="6_17 17_18"/>
    <route id="we4" edges="17_18 18_19"/>
    <route id="we5" edges="18_19 19_b"/>
    
    <route id="ew1" edges="b_19 19_18"/>
    <route id="ew2" edges="19_18 18_17"/>
    <route id="ew3" edges="18_17 17_6"/>
    <route id="ew4" edges="17_6 6_3"/>
    <route id="ew5" edges="6_3 3_a"/>
    
    <!-- Vertical pedestrian routes (crossing at each TLS) -->
    <route id="sn1" edges="c_3 3_d"/>
    <route id="ns1" edges="d_3 3_c"/>
    <route id="sn2" edges="e_6 6_f"/>
    <route id="ns2" edges="f_6 6_e"/>
    <route id="sn3" edges="g_17 17_h"/>
    <route id="ns3" edges="h_17 17_g"/>
    <route id="sn4" edges="i_18 18_j"/>
    <route id="ns4" edges="j_18 18_i"/>
    <route id="sn5" edges="k_19 19_l"/>
    <route id="ns5" edges="l_19 19_k"/>
                    
        
    <person id="800000" depart="1" departPos="random">
        <walk route="sn4"/>
    </person>
    <person id="800001" depart="3" departPos="random">
        <walk route="ew4"/>
    </person>
    <person id="800002" depart="3" departPos="random">
        <walk route="sn2"/>
    </person>
    <person id="800003" depart="4" departPos="random">
        <walk route="ew3"/>
    </person>
    <person id="800004" depart="7" departPos="random">
        <walk route="sn5"/>
    </person>
    <person id="800005" depart="8" departPos="random">
        <walk route="we4"/>
    </person>
    <person id="800006" depart="15" departPos="random">
        <walk route="we3"/>
    </person>
    <person id="800007" depart="15" departPos="random">
        <walk route="sn4"/>
    </person>
    <person id="800008" depart="19" departPos="random">
        <walk route="ns3"/>
    </person>
    <person id="800009" depart="20" departPos="random">
        <walk route="sn2"/>
    </person>
    <person id="800010" depart="22" departPos="random">
        <walk route="ns3"/>
    </person>
    <person id="800011" depart="31" departPos="random">
        <walk route="ew1"/>
    </person>
    <person id="800012" depart="31" departPos="random">
        <walk route="ew3"/>
    </person>
    <person id="800013" depart="35" departPos="random">
        <walk route="we1"/>
    </person>
    <person id="800014" depart="37" departPos="random">
        <walk route="we3"/>
    </person>
    <person id="800015" depart="38" departPos="random">
        <walk route="ew4"/>
    </person>
    <person id="800016" depart="41" departPos="random">
        <walk route="ew3"/>
    </person>
    <person id="800017" depart="42" departPos="random">
        <walk route="ew3"/>
    </person>
    <person id="800018" depart="42" departPos="random">
        <walk route="ew4"/>
    </person>
    <person id="800019" depart="47" departPos="random">
        <walk route="we3"/>
    </person>
    <person id="800020" depart="50" departPos="random">
        <walk route="ew4"/>
    </person>
    <person id="800021" depart="57" departPos="random">
        <walk route="we2"/>
    </person>
    <person id="800022" depart="60" departPos="random">
        <walk route="we2"/>
    </person>
    <person id="800023" depart="62" departPos="random">
        <walk route="ns3"/>
    </person>
    <person id="800024" depart="65" departPos="random">
        <walk route="ns4"/>
    </person>
    <person id="800025" depart="69" departPos="random">
        <walk route="ns2"/>
    </person>
    <person id="800026" depart="75" departPos="random">
        <walk route="we1"/>
    </person>
    <person id="800027" depart="76" departPos="random">
        <walk route="we4"/>
    </person>
    <person id="800028" depart="77" departPos="random">
        <walk route="ew1"/>
    </person>
    <person id="800029" depart="79" departPos="random">
        <walk route="ew3"/>
    </person>
    <person id="800030" depart="80" departPos="random">
        <walk route="ns2"/>
    </person>
    <person id="800031" depart="82" departPos="random">
        <walk route="we4"/>
    </person>
    <person id="800032" depart="83" departPos="random">
        <walk route="ew3"/>
    </person>
    <person id="800033" depart="85" departPos="random">
        <walk route="we5"/>
    </person>
    <person id="800034" depart="95" departPos="random">
        <walk route="sn3"/>
    </person>
    <person id="800035" depart="96" departPos="random">
        <walk route="ew2"/>
    </person>
    <person id="800036" depart="100" departPos="random">
        <walk route="ew3"/>
    </person>
    <person id="800037" depart="103" departPos="random">
        <walk route="ew1"/>
    </person>
    <person id="800038" depart="106" departPos="random">
        <walk route="ns3"/>
    </person>
    <person id="800039" depart="110" departPos="random">
        <walk route="we1"/>
    </person>
    <person id="800040" depart="110" departPos="random">
        <walk route="we2"/>
    </person>
    <person id="800041" depart="112" departPos="random">
        <walk route="we1"/>
    </person>
    <person id="800042" depart="114" departPos="random">
        <walk route="we4"/>
    </person>
    <person id="800043" depart="114" departPos="random">
        <walk route="ew4"/>
    </person>
    <person id="800044" depart="119" departPos="random">
        <walk route="ew2"/>
    </person>
    <person id="800045" depart="121" departPos="random">
        <walk route="ew5"/>
    </person>
    <person id="800046" depart="128" departPos="random">
        <walk route="ew2"/>
    </person>
    <person id="800047" depart="132" departPos="random">
        <walk route="we3"/>
    </person>
    <person id="800048" depart="135" departPos="random">
        <walk route="ew3"/>
    </person>
    <person id="800049" depart="140" departPos="random">
        <walk route="we5"/>
    </person>
    <person id="800050" depart="143" departPos="random">
        <walk route="ew2"/>
    </person>
    <person id="800051" depart="145" departPos="random">
        <walk route="we3"/>
    </person>
    <person id="800052" depart="146" departPos="random">
        <walk route="ew5"/>
    </person>
    <person id="800053" depart="148" departPos="random">
        <walk route="ew1"/>
    </person>
    <person id="800054" depart="150" departPos="random">
        <walk route="we5"/>
    </person>
    <person id="800055" depart="154" departPos="random">
        <walk route="we4"/>
    </person>
    <person id="800056" depart="154" departPos="random">
        <walk route="ew3"/>
    </person>
    <person id="800057" depart="155" departPos="random">
        <walk route="we2"/>
    </person>
    <person id="800058" depart="156" departPos="random">
        <walk route="ns4"/>
    </person>
    <person id="800059" depart="157" departPos="random">
        <walk route="ns1"/>
    </person>
    <person id="800060" depart="163" departPos="random">
        <walk route="we4"/>
    </person>
    <person id="800061" depart="163" departPos="random">
        <walk route="ew3"/>
    </person>
    <person id="800062" depart="167" departPos="random">
        <walk route="ns1"/>
    </person>
    <person id="800063" depart="170" departPos="random">
        <walk route="we5"/>
    </person>
    <person id="800064" depart="172" departPos="random">
        <walk route="we2"/>
    </person>
    <person id="800065" depart="172" departPos="random">
        <walk route="sn1"/>
    </person>
    <person id="800066" depart="180" departPos="random">
        <walk route="ew2"/>
    </person>
    <person id="800067" depart="185" departPos="random">
        <walk route="ew1"/>
    </person>
    <person id="800068" depart="186" departPos="random">
        <walk route="we4"/>
    </person>
    <person id="800069" depart="186" departPos="random">
        <walk route="ew5"/>
    </person>
    <person id="800070" depart="196" departPos="random">
        <walk route="ew1"/>
    </person>
    <person id="800071" depart="197" departPos="random">
        <walk route="we3"/>
    </person>
    <person id="800072" depart="198" departPos="random">
        <walk route="ew1"/>
    </person>
    <person id="800073" depart="199" departPos="random">
        <walk route="we3"/>
    </person>
    <person id="800074" depart="203" departPos="random">
        <walk route="we1"/>
    </person>
    <person id="800075" depart="205" departPos="random">
        <walk route="ns1"/>
    </person>
    <person id="800076" depart="209" departPos="random">
        <walk route="we1"/>
    </person>
    <person id="800077" depart="212" departPos="random">
        <walk route="sn5"/>
    </person>
    <person id="800078" depart="213" departPos="random">
        <walk route="ew1"/>
    </person>
    <person id="800079" depart="213" departPos="random">
        <walk route="ew5"/>
    </person>
    <person id="800080" depart="215" departPos="random">
        <walk route="we4"/>
    </person>
    <person id="800081" depart="221" departPos="random">
        <walk route="ew3"/>
    </person>
    <person id="800082" depart="226" departPos="random">
        <walk route="sn1"/>
    </person>
    <person id="800083" depart="229" departPos="random">
        <walk route="ns5"/>
    </person>
    <person id="800084" depart="230" departPos="random">
        <walk route="we1"/>
    </person>
    <person id="800085" depart="236" departPos="random">
        <walk route="we3"/>
    </person>
    <person id="800086" depart="238" departPos="random">
        <walk route="we3"/>
    </person>
    <person id="800087" depart="239" departPos="random">
        <walk route="ew2"/>
    </person>
    <person id="800088" depart="244" departPos="random">
        <walk route="ew5"/>
    </person>
    <person id="800089" depart="245" departPos="random">
        <walk route="ns1"/>
    </person>
    <person id="800090" depart="246" departPos="random">
        <walk route="ew2"/>
    </person>
    <person id="800091" depart="250" departPos="random">
        <walk route="ew2"/>
    </person>
    <person id="800092" depart="250" departPos="random">
        <walk route="ns2"/>
    </person>
    <person id="800093" depart="257" departPos="random">
        <walk route="we2"/>
    </person>
    <person id="800094" depart="258" departPos="random">
        <walk route="ew3"/>
    </person>
    <person id="800095" depart="263" departPos="random">
        <walk route="ew2"/>
    </person>
    <person id="800096" depart="267" departPos="random">
        <walk route="ew2"/>
    </person>
    <person id="800097" depart="269" departPos="random">
        <walk route="ew5"/>
    </person>
    <person id="800098" depart="271" departPos="random">
        <walk route="we1"/>
    </person>
    <person id="800099" depart="271" departPos="random">
        <walk route="ns4"/>
    </person>
    <person id="800100" depart="272" departPos="random">
        <walk route="we4"/>
    </person>
    <person id="800101" depart="272" departPos="random">
        <walk route="ew5"/>
    </person>
    <person id="800102" depart="275" departPos="random">
        <walk route="ew5"/>
    </person>
    <person id="800103" depart="278" departPos="random">
        <walk route="we4"/>
    </person>
    <person id="800104" depart="280" departPos="random">
        <walk route="ew2"/>
    </person>
    <person id="800105" depart="284" departPos="random">
        <walk route="ew4"/>
    </person>
    <person id="800106" depart="286" departPos="random">
        <walk route="ew1"/>
    </person>
    <person id="800107" depart="287" departPos="random">
        <walk route="sn5"/>
    </person>
    <person id="800108" depart="291" departPos="random">
        <walk route="we2"/>
    </person>
    <person id="800109" depart="298" departPos="random">
        <walk route="ew1"/>
    </person>
    <person id="800110" depart="299" departPos="random">
        <walk route="we1"/>
    </person>
    <person id="800111" depart="301" departPos="random">
        <walk route="sn1"/>
    </person>
    <person id="800112" depart="301" departPos="random">
        <walk route="sn4"/>
    </person>
    <person id="800113" depart="304" departPos="random">
        <walk route="ns2"/>
    </person>
    <person id="800114" depart="315" departPos="random">
        <walk route="ew1"/>
    </person>
    <person id="800115" depart="317" departPos="random">
        <walk route="we5"/>
    </person>
    <person id="800116" depart="329" departPos="random">
        <walk route="ns4"/>
    </person>
    <person id="800117" depart="336" departPos="random">
        <walk route="we3"/>
    </person>
    <person id="800118" depart="340" departPos="random">
        <walk route="we5"/>
    </person>
    <person id="800119" depart="340" departPos="random">
        <walk route="ew1"/>
    </person>
    <person id="800120" depart="340" departPos="random">
        <walk route="sn1"/>
    </person>
    <person id="800121" depart="341" departPos="random">
        <walk route="ew2"/>
    </person>
    <person id="800122" depart="344" departPos="random">
        <walk route="ew3"/>
    </person>
    <person id="800123" depart="345" departPos="random">
        <walk route="ew3"/>
    </person>
    <person id="800124" depart="346" departPos="random">
        <walk route="ns1"/>
    </person>
    <person id="800125" depart="349" departPos="random">
        <walk route="ew1"/>
    </person>
    <person id="800126" depart="352" departPos="random">
        <walk route="ew5"/>
    </person>
    <person id="800127" depart="359" departPos="random">
        <walk route="we3"/>
    </person>
    <person id="800128" depart="360" departPos="random">
        <walk route="ns1"/>
    </person>
    <person id="800129" depart="370" departPos="random">
        <walk route="we2"/>
    </person>
    <person id="800130" depart="370" departPos="random">
        <walk route="we5"/>
    </person>
    <person id="800131" depart="374" departPos="random">
        <walk route="we3"/>
    </person>
    <person id="800132" depart="374" departPos="random">
        <walk route="we4"/>
    </person>
    <person id="800133" depart="378" departPos="random">
        <walk route="we1"/>
    </person>
    <person id="800134" depart="379" departPos="random">
        <walk route="ew4"/>
    </person>
    <person id="800135" depart="381" departPos="random">
        <walk route="ew4"/>
    </person>
    <person id="800136" depart="382" departPos="random">
        <walk route="ew1"/>
    </person>
    <person id="800137" depart="384" departPos="random">
        <walk route="we3"/>
    </person>
    <person id="800138" depart="389" departPos="random">
        <walk route="we3"/>
    </person>
    <person id="800139" depart="390" departPos="random">
        <walk route="we4"/>
    </person>
    <person id="800140" depart="394" departPos="random">
        <walk route="we5"/>
    </person>
    <person id="800141" depart="404" departPos="random">
        <walk route="we1"/>
    </person>
    <person id="800142" depart="406" departPos="random">
        <walk route="ew2"/>
    </person>
    <person id="800143" depart="407" departPos="random">
        <walk route="ew2"/>
    </person>
    <person id="800144" depart="408" departPos="random">
        <walk route="we5"/>
    </person>
    <person id="800145" depart="412" departPos="random">
        <walk route="ew5"/>
    </person>
    <person id="800146" depart="413" departPos="random">
        <walk route="we1"/>
    </person>
    <person id="800147" depart="413" departPos="random">
        <walk route="ns1"/>
    </person>
    <person id="800148" depart="417" departPos="random">
        <walk route="we3"/>
    </person>
    <person id="800149" depart="421" departPos="random">
        <walk route="ew3"/>
    </person>
    <person id="800150" depart="425" departPos="random">
        <walk route="we5"/>
    </person>
    <person id="800151" depart="428" departPos="random">
        <walk route="ew2"/>
    </person>
    <person id="800152" depart="428" departPos="random">
        <walk route="sn3"/>
    </person>
    <person id="800153" depart="429" departPos="random">
        <walk route="sn1"/>
    </person>
    <person id="800154" depart="429" departPos="random">
        <walk route="sn4"/>
    </person>
    <person id="800155" depart="438" departPos="random">
        <walk route="we5"/>
    </person>
    <person id="800156" depart="438" departPos="random">
        <walk route="ns1"/>
    </person>
    <person id="800157" depart="450" departPos="random">
        <walk route="sn2"/>
    </person>
    <person id="800158" depart="453" departPos="random">
        <walk route="we2"/>
    </person>
    <person id="800159" depart="453" departPos="random">
        <walk route="we3"/>
    </person>
    <person id="800160" depart="454" departPos="random">
        <walk route="we3"/>
    </person>
    <person id="800161" depart="459" departPos="random">
        <walk route="we4"/>
    </person>
    <person id="800162" depart="461" departPos="random">
        <walk route="we4"/>
    </person>
    <person id="800163" depart="462" departPos="random">
        <walk route="ew1"/>
    </person>
    <person id="800164" depart="463" departPos="random">
        <walk route="we4"/>
    </person>
    <person id="800165" depart="465" departPos="random">
        <walk route="we2"/>
    </person>
    <person id="800166" depart="467" departPos="random">
        <walk route="ns4"/>
    </person>
    <person id="800167" depart="472" departPos="random">
        <walk route="ew2"/>
    </person>
    <person id="800168" depart="473" departPos="random">
        <walk route="ns2"/>
    </person>
    <person id="800169" depart="477" departPos="random">
        <walk route="ew4"/>
    </person>
    <person id="800170" depart="479" departPos="random">
        <walk route="sn2"/>
    </person>
    <person id="800171" depart="480" departPos="random">
        <walk route="ns3"/>
    </person>
    <person id="800172" depart="486" departPos="random">
        <walk route="we2"/>
    </person>
    <person id="800173" depart="486" departPos="random">
        <walk route="ew2"/>
    </person>
    <person id="800174" depart="487" departPos="random">
        <walk route="ew5"/>
    </person>
    <person id="800175" depart="493" departPos="random">
        <walk route="ns1"/>
    </person>
    <person id="800176" depart="494" departPos="random">
        <walk route="we1"/>
    </person>
    <person id="800177" depart="494" departPos="random">
        <walk route="we5"/>
    </person>
    <person id="800178" depart="496" departPos="random">
        <walk route="we4"/>
    </person>
    <person id="800179" depart="496" departPos="random">
        <walk route="ew5"/>
    </person>
    <person id="800180" depart="499" departPos="random">
        <walk route="ew2"/>
    </person>
    <person id="800181" depart="499" departPos="random">
        <walk route="ew4"/>
    </person>
    <person id="800182" depart="500" departPos="random">
        <walk route="ew2"/>
    </person>
    <person id="800183" depart="500" departPos="random">
        <walk route="ew3"/>
    </person>
    <person id="800184" depart="501" departPos="random">
        <walk route="we2"/>
    </person>
    <person id="800185" depart="501" departPos="random">
        <walk route="we5"/>
    </person>
    <person id="800186" depart="503" departPos="random">
        <walk route="we4"/>
    </person>
    <person id="800187" depart="505" departPos="random">
        <walk route="we5"/>
    </person>
    <person id="800188" depart="510" departPos="random">
        <walk route="ew2"/>
    </person>
    <person id="800189" depart="511" departPos="random">
        <walk route="ew4"/>
    </person>
    <person id="800190" depart="516" departPos="random">
        <walk route="ew3"/>
    </person>
    <person id="800191" depart="520" departPos="random">
        <walk route="ew5"/>
    </person>
    <person id="800192" depart="526" departPos="random">
        <walk route="ew1"/>
    </person>
    <person id="800193" depart="528" departPos="random">
        <walk route="ew2"/>
    </person>
    <person id="800194" depart="529" departPos="random">
        <walk route="ns4"/>
    </person>
    <person id="800195" depart="530" departPos="random">
        <walk route="ew3"/>
    </person>
    <person id="800196" depart="530" departPos="random">
        <walk route="ns3"/>
    </person>
    <person id="800197" depart="531" departPos="random">
        <walk route="we1"/>
    </person>
    <person id="800198" depart="534" departPos="random">
        <walk route="we5"/>
    </person>
    <person id="800199" depart="535" departPos="random">
        <walk route="ns5"/>
    </person>
    <person id="800200" depart="537" departPos="random">
        <walk route="we2"/>
    </person>
    <person id="800201" depart="537" departPos="random">
        <walk route="ew3"/>
    </person>
    <person id="800202" depart="541" departPos="random">
        <walk route="we3"/>
    </person>
    <person id="800203" depart="541" departPos="random">
        <walk route="ew1"/>
    </person>
    <person id="800204" depart="541" departPos="random">
        <walk route="ns4"/>
    </person>
    <person id="800205" depart="546" departPos="random">
        <walk route="ns3"/>
    </person>
    <person id="800206" depart="547" departPos="random">
        <walk route="ew5"/>
    </person>
    <person id="800207" depart="549" departPos="random">
        <walk route="we2"/>
    </person>
    <person id="800208" depart="550" departPos="random">
        <walk route="sn3"/>
    </person>
    <person id="800209" depart="554" departPos="random">
        <walk route="we1"/>
    </person>
    <person id="800210" depart="559" departPos="random">
        <walk route="we2"/>
    </person>
    <person id="800211" depart="569" departPos="random">
        <walk route="we1"/>
    </person>
    <person id="800212" depart="573" departPos="random">
        <walk route="we3"/>
    </person>
    <person id="800213" depart="574" departPos="random">
        <walk route="ew4"/>
    </person>
    <person id="800214" depart="575" departPos="random">
        <walk route="we2"/>
    </person>
    <person id="800215" depart="575" departPos="random">
        <walk route="ns4"/>
    </person>
    <person id="800216" depart="576" departPos="random">
        <walk route="ns2"/>
    </person>
    <person id="800217" depart="577" departPos="random">
        <walk route="we4"/>
    </person>
    <person id="800218" depart="581" departPos="random">
        <walk route="ns2"/>
    </person>
    <person id="800219" depart="589" departPos="random">
        <walk route="we2"/>
    </person>
    <person id="800220" depart="592" departPos="random">
        <walk route="ew1"/>
    </person>
    <person id="800221" depart="593" departPos="random">
        <walk route="we1"/>
    </person>
    <person id="800222" depart="596" departPos="random">
        <walk route="ew2"/>
    </person>
    <person id="800223" depart="598" departPos="random">
        <walk route="ew4"/>
    </person>
    <person id="800224" depart="600" departPos="random">
        <walk route="ew2"/>
    </person>
    <person id="800225" depart="600" departPos="random">
        <walk route="ew3"/>
    </person>
    <person id="800226" depart="604" departPos="random">
        <walk route="ew5"/>
    </person>
    <person id="800227" depart="605" departPos="random">
        <walk route="we1"/>
    </person>
    <person id="800228" depart="608" departPos="random">
        <walk route="ns3"/>
    </person>
    <person id="800229" depart="613" departPos="random">
        <walk route="ew4"/>
    </person>
    <person id="800230" depart="615" departPos="random">
        <walk route="we3"/>
    </person>
    <person id="800231" depart="616" departPos="random">
        <walk route="we3"/>
    </person>
    <person id="800232" depart="621" departPos="random">
        <walk route="ew2"/>
    </person>
    <person id="800233" depart="624" departPos="random">
        <walk route="we2"/>
    </person>
    <person id="800234" depart="625" departPos="random">
        <walk route="we5"/>
    </person>
    <person id="800235" depart="631" departPos="random">
        <walk route="ew5"/>
    </person>
    <person id="800236" depart="633" departPos="random">
        <walk route="ew3"/>
    </person>
    <person id="800237" depart="634" departPos="random">
        <walk route="ew2"/>
    </person>
    <person id="800238" depart="637" departPos="random">
        <walk route="ew4"/>
    </person>
    <person id="800239" depart="640" departPos="random">
        <walk route="we5"/>
    </person>
    <person id="800240" depart="641" departPos="random">
        <walk route="we5"/>
    </person>
    <person id="800241" depart="641" departPos="random">
        <walk route="ew1"/>
    </person>
    <person id="800242" depart="642" departPos="random">
        <walk route="we1"/>
    </person>
    <person id="800243" depart="642" departPos="random">
        <walk route="ew1"/>
    </person>
    <person id="800244" depart="642" departPos="random">
        <walk route="ns2"/>
    </person>
    <person id="800245" depart="646" departPos="random">
        <walk route="ew2"/>
    </person>
    <person id="800246" depart="646" departPos="random">
        <walk route="ew4"/>
    </person>
    <person id="800247" depart="649" departPos="random">
        <walk route="ew1"/>
    </person>
    <person id="800248" depart="657" departPos="random">
        <walk route="sn4"/>
    </person>
    <person id="800249" depart="662" departPos="random">
        <walk route="we3"/>
    </person>
    <person id="800250" depart="662" departPos="random">
        <walk route="ew4"/>
    </person>
    <person id="800251" depart="664" departPos="random">
        <walk route="ew3"/>
    </person>
    <person id="800252" depart="671" departPos="random">
        <walk route="we1"/>
    </person>
    <person id="800253" depart="672" departPos="random">
        <walk route="sn1"/>
    </person>
    <person id="800254" depart="674" departPos="random">
        <walk route="we4"/>
    </person>
    <person id="800255" depart="680" departPos="random">
        <walk route="ew2"/>
    </person>
    <person id="800256" depart="681" departPos="random">
        <walk route="we2"/>
    </person>
    <person id="800257" depart="681" departPos="random">
        <walk route="we3"/>
    </person>
    <person id="800258" depart="685" departPos="random">
        <walk route="ns3"/>
    </person>
    <person id="800259" depart="686" departPos="random">
        <walk route="ew4"/>
    </person>
    <person id="800260" depart="687" departPos="random">
        <walk route="ew2"/>
    </person>
    <person id="800261" depart="695" departPos="random">
        <walk route="ew4"/>
    </person>
    <person id="800262" depart="700" departPos="random">
        <walk route="sn4"/>
    </person>
    <person id="800263" depart="702" departPos="random">
        <walk route="sn2"/>
    </person>
    <person id="800264" depart="704" departPos="random">
        <walk route="we4"/>
    </person>
    <person id="800265" depart="705" departPos="random">
        <walk route="we5"/>
    </person>
    <person id="800266" depart="708" departPos="random">
        <walk route="ew1"/>
    </person>
    <person id="800267" depart="708" departPos="random">
        <walk route="ns2"/>
    </person>
    <person id="800268" depart="710" departPos="random">
        <walk route="we4"/>
    </person>
    <person id="800269" depart="714" departPos="random">
        <walk route="we5"/>
    </person>
    <person id="800270" depart="715" departPos="random">
        <walk route="ew4"/>
    </person>
    <person id="800271" depart="722" departPos="random">
        <walk route="we3"/>
    </person>
    <person id="800272" depart="727" departPos="random">
        <walk route="ew3"/>
    </person>
    <person id="800273" depart="728" departPos="random">
        <walk route="we2"/>
    </person>
    <person id="800274" depart="728" departPos="random">
        <walk route="ew1"/>
    </person>
    <person id="800275" depart="734" departPos="random">
        <walk route="we4"/>
    </person>
    <person id="800276" depart="736" departPos="random">
        <walk route="ns3"/>
    </person>
    <person id="800277" depart="740" departPos="random">
        <walk route="ew2"/>
    </person>
    <person id="800278" depart="740" departPos="random">
        <walk route="sn3"/>
    </person>
    <person id="800279" depart="741" departPos="random">
        <walk route="ew5"/>
    </person>
    <person id="800280" depart="742" departPos="random">
        <walk route="ns1"/>
    </person>
    <person id="800281" depart="745" departPos="random">
        <walk route="ew1"/>
    </person>
    <person id="800282" depart="746" departPos="random">
        <walk route="ns3"/>
    </person>
    <person id="800283" depart="748" departPos="random">
        <walk route="we1"/>
    </person>
    <person id="800284" depart="751" departPos="random">
        <walk route="ns1"/>
    </person>
    <person id="800285" depart="752" departPos="random">
        <walk route="ew2"/>
    </person>
    <person id="800286" depart="754" departPos="random">
        <walk route="we1"/>
    </person>
    <person id="800287" depart="756" departPos="random">
        <walk route="we2"/>
    </person>
    <person id="800288" depart="756" departPos="random">
        <walk route="ew2"/>
    </person>
    <person id="800289" depart="757" departPos="random">
        <walk route="we4"/>
    </person>
    <person id="800290" depart="760" departPos="random">
        <walk route="ns2"/>
    </person>
    <person id="800291" depart="763" departPos="random">