<routes>
        
    <vType id="Volkswagen" accel="2.3" decel="4.5" sigma="0.5" length="4.0" maxSpeed="60" color="124,252,0" vClass="private" emissionClass="HBEFA3/PC_G_EU4"/>  

    <!-- ========================================== -->
    <!-- HORIZONTAL ROUTES: West to East (from a)  -->
    <!-- ========================================== -->

    <!--  Horizontal Arterial - 5 Intersections @ 1km spacing -->
    <!-- 


                        c              e              g              i              k
                        │              │              │              │              │
                        9             13             26             30             34
                        │              │              │              │              │
                    10             14             27             31             35
                        │              │              │              │              │
    a────1────2────[3]────4────5──[6]────7───20─[17]───21───22─[18]───23───24─[19]───25────8────b
                        │              │              │              │              │
                    11             15             28             32             36
                        │              │              │              │              │
                    12             16             29             33             37
                        │              │              │              │              │
                        d              f              h              j              l


    x=-1100        x=0          x=1000         x=2000         x=3000         x=4000        x=5100
    (Entry)      TLS-1          TLS-2          TLS-3          TLS-4          TLS-5         (Exit)

    -->
    
    <!-- a to b (full through) -->
    <route id="1" edges="a_1 1_2 2_3 3_4 4_5 5_6 6_7 7_20 20_17 17_21 21_22 22_18 18_23 23_24 24_19 19_25 25_8 8_b"/>
    
    <!-- a to vertical exits at TLS-1 -->
    <route id="2" edges="a_1 1_2 2_3 3_10 10_9 9_c"/>
    <route id="3" edges="a_1 1_2 2_3 3_11 11_12 12_d"/>
    
    <!-- a to vertical exits at TLS-2 -->
    <route id="4" edges="a_1 1_2 2_3 3_4 4_5 5_6 6_14 14_13 13_e"/>
    <route id="5" edges="a_1 1_2 2_3 3_4 4_5 5_6 6_15 15_16 16_f"/>
    
    <!-- a to vertical exits at TLS-3 -->
    <route id="6" edges="a_1 1_2 2_3 3_4 4_5 5_6 6_7 7_20 20_17 17_27 27_26 26_g"/>
    <route id="7" edges="a_1 1_2 2_3 3_4 4_5 5_6 6_7 7_20 20_17 17_28 28_29 29_h"/>
    
    <!-- a to vertical exits at TLS-4 -->
    <route id="8" edges="a_1 1_2 2_3 3_4 4_5 5_6 6_7 7_20 20_17 17_21 21_22 22_18 18_31 31_30 30_i"/>
    <route id="9" edges="a_1 1_2 2_3 3_4 4_5 5_6 6_7 7_20 20_17 17_21 21_22 22_18 18_32 32_33 33_j"/>
    
    <!-- a to vertical exits at TLS-5 -->
    <route id="10" edges="a_1 1_2 2_3 3_4 4_5 5_6 6_7 7_20 20_17 17_21 21_22 22_18 18_23 23_24 24_19 19_35 35_34 34_k"/>
    <route id="11" edges="a_1 1_2 2_3 3_4 4_5 5_6 6_7 7_20 20_17 17_21 21_22 22_18 18_23 23_24 24_19 19_36 36_37 37_l"/>

    <!-- ========================================== -->
    <!-- HORIZONTAL ROUTES: East to West (from b)  -->
    <!-- ========================================== -->
    
    <!-- b to a (full through) -->
    <route id="12" edges="b_8 8_25 25_19 19_24 24_23 23_18 18_22 22_21 21_17 17_20 20_7 7_6 6_5 5_4 4_3 3_2 2_1 1_a"/>
    
    <!-- b to vertical exits at TLS-5 -->
    <route id="13" edges="b_8 8_25 25_19 19_35 35_34 34_k"/>
    <route id="14" edges="b_8 8_25 25_19 19_36 36_37 37_l"/>
    
    <!-- b to vertical exits at TLS-4 -->
    <route id="15" edges="b_8 8_25 25_19 19_24 24_23 23_18 18_31 31_30 30_i"/>
    <route id="16" edges="b_8 8_25 25_19 19_24 24_23 23_18 18_32 32_33 33_j"/>
    
    <!-- b to vertical exits at TLS-3 -->
    <route id="17" edges="b_8 8_25 25_19 19_24 24_23 23_18 18_22 22_21 21_17 17_27 27_26 26_g"/>
    <route id="18" edges="b_8 8_25 25_19 19_24 24_23 23_18 18_22 22_21 21_17 17_28 28_29 29_h"/>
    
    <!-- b to vertical exits at TLS-2 -->
    <route id="19" edges="b_8 8_25 25_19 19_24 24_23 23_18 18_22 22_21 21_17 17_20 20_7 7_6 6_14 14_13 13_e"/>
    <route id="20" edges="b_8 8_25 25_19 19_24 24_23 23_18 18_22 22_21 21_17 17_20 20_7 7_6 6_15 15_16 16_f"/>
    
    <!-- b to vertical exits at TLS-1 -->
    <route id="21" edges="b_8 8_25 25_19 19_24 24_23 23_18 18_22 22_21 21_17 17_20 20_7 7_6 6_5 5_4 4_3 3_10 10_9 9_c"/>
    <route id="22" edges="b_8 8_25 25_19 19_24 24_23 23_18 18_22 22_21 21_17 17_20 20_7 7_6 6_5 5_4 4_3 3_11 11_12 12_d"/>

    <!-- ========================================== -->
    <!-- VERTICAL ROUTES @ TLS-1: c and d          -->
    <!-- ========================================== -->
    
    <!-- From c (south entry) -->
    <route id="23" edges="c_9 9_10 10_3 3_11 11_12 12_d"/>
    <route id="24" edges="c_9 9_10 10_3 3_2 2_1 1_a"/>
    <route id="25" edges="c_9 9_10 10_3 3_4 4_5 5_6 6_7 7_20 20_17 17_21 21_22 22_18 18_23 23_24 24_19 19_25 25_8 8_b"/>
    
    <!-- From d (north entry) -->
    <route id="26" edges="d_12 12_11 11_3 3_10 10_9 9_c"/>
    <route id="27" edges="d_12 12_11 11_3 3_2 2_1 1_a"/>
    <route id="28" edges="d_12 12_11 11_3 3_4 4_5 5_6 6_7 7_20 20_17 17_21 21_22 22_18 18_23 23_24 24_19 19_25 25_8 8_b"/>

    <!-- ========================================== -->
    <!-- VERTICAL ROUTES @ TLS-2: e and f          -->
    <!-- ========================================== -->
    
    <!-- From e (south entry) -->
    <route id="29" edges="e_13 13_14 14_6 6_15 15_16 16_f"/>
    <route id="30" edges="e_13 13_14 14_6 6_5 5_4 4_3 3_2 2_1 1_a"/>
    <route id="31" edges="e_13 13_14 14_6 6_7 7_20 20_17 17_21 21_22 22_18 18_23 23_24 24_19 19_25 25_8 8_b"/>
    
    <!-- From f (north entry) -->
    <route id="32" edges="f_16 16_15 15_6 6_14 14_13 13_e"/>
    <route id="33" edges="f_16 16_15 15_6 6_5 5_4 4_3 3_2 2_1 1_a"/>
    <route id="34" edges="f_16 16_15 15_6 6_7 7_20 20_17 17_21 21_22 22_18 18_23 23_24 24_19 19_25 25_8 8_b"/>

    <!-- ========================================== -->
    <!-- VERTICAL ROUTES @ TLS-3: g and h          -->
    <!-- ========================================== -->
    
    <!-- From g (south entry) -->
    <route id="35" edges="g_26 26_27 27_17 17_28 28_29 29_h"/>
    <route id="36" edges="g_26 26_27 27_17 17_20 20_7 7_6 6_5 5_4 4_3 3_2 2_1 1_a"/>
    <route id="37" edges="g_26 26_27 27_17 17_21 21_22 22_18 18_23 23_24 24_19 19_25 25_8 8_b"/>
    
    <!-- From h (north entry) -->
    <route id="38" edges="h_29 29_28 28_17 17_27 27_26 26_g"/>
    <route id="39" edges="h_29 29_28 28_17 17_20 20_7 7_6 6_5 5_4 4_3 3_2 2_1 1_a"/>
    <route id="40" edges="h_29 29_28 28_17 17_21 21_22 22_18 18_23 23_24 24_19 19_25 25_8 8_b"/>

    <!-- ========================================== -->
    <!-- VERTICAL ROUTES @ TLS-4: i and j          -->
    <!-- ========================================== -->
    
    <!-- From i (south entry) -->
    <route id="41" edges="i_30 30_31 31_18 18_32 32_33 33_j"/>
    <route id="42" edges="i_30 30_31 31_18 18_22 22_21 21_17 17_20 20_7 7_6 6_5 5_4 4_3 3_2 2_1 1_a"/>
    <route id="43" edges="i_30 30_31 31_18 18_23 23_24 24_19 19_25 25_8 8_b"/>
    
    <!-- From j (north entry) -->
    <route id="44" edges="j_33 33_32 32_18 18_31 31_30 30_i"/>
    <route id="45" edges="j_33 33_32 32_18 18_22 22_21 21_17 17_20 20_7 7_6 6_5 5_4 4_3 3_2 2_1 1_a"/>
    <route id="46" edges="j_33 33_32 32_18 18_23 23_24 24_19 19_25 25_8 8_b"/>

    <!-- ========================================== -->
    <!-- VERTICAL ROUTES @ TLS-5: k and l          -->
    <!-- ========================================== -->
    
    <!-- From k (south entry) -->
    <route id="47" edges="k_34 34_35 35_19 19_36 36_37 37_l"/>
    <route id="48" edges="k_34 34_35 35_19 19_24 24_23 23_18 18_22 22_21 21_17 17_20 20_7 7_6 6_5 5_4 4_3 3_2 2_1 1_a"/>
    <route id="49" edges="k_34 34_35 35_19 19_25 25_8 8_b"/>
    
    <!-- From l (north entry) -->
    <route id="50" edges="l_37 37_36 36_19 19_35 35_34 34_k"/>
    <route id="51" edges="l_37 37_36 36_19 19_24 24_23 23_18 18_22 22_21 21_17 17_20 20_7 7_6 6_5 5_4 4_3 3_2 2_1 1_a"/>
    <route id="52" edges="l_37 37_36 36_19 19_25 25_8 8_b"/>

        
    <vehicle id="0" type="Volkswagen" route="12" depart="2" departLane="free" departSpeed="random" />
    <vehicle id="1" type="Volkswagen" route="12" depart="4" departLane="free" departSpeed="random" />
    <vehicle id="2" type="Volkswagen" route="1" depart="9" departLane="free" departSpeed="random" />
    <vehicle id="3" type="Volkswagen" route="29" depart="9" departLane="free" departSpeed="random" />
    <vehicle id="4" type="Volkswagen" route="2" depart="23" departLane="free" departSpeed="random" />
    <vehicle id="5" type="Volkswagen" route="38" depart="40" departLane="free" departSpeed="random" />
    <vehicle id="6" type="Volkswagen" route="41" depart="40" departLane="free" departSpeed="random" />
    <vehicle id="7" type="Volkswagen" route="1" depart="76" departLane="free" departSpeed="random" />
    <vehicle id="8" type="Volkswagen" route="12" depart="77" departLane="free" departSpeed="random" />
    <vehicle id="9" type="Volkswagen" route="38" depart="77" departLane="free" departSpeed="random" />
    <vehicle id="10" type="Volkswagen" route="45" depart="100" departLane="free" departSpeed="random" />
    <vehicle id="11" type="Volkswagen" route="1" depart="105" departLane="free" departSpeed="random" />
    <vehicle id="12" type="Volkswagen" route="12" depart="127" departLane="free" departSpeed="random" />
    <vehicle id="13" type="Volkswagen" route="1" depart="154" departLane="free" departSpeed="random" />
    <vehicle id="14" type="Volkswagen" route="26" depart="155" departLane="free" departSpeed="random" />
    <vehicle id="15" type="Volkswagen" route="50" depart="155" departLane="free" departSpeed="random" />
    <vehicle id="16" type="Volkswagen" route="26" depart="162" departLane="free" departSpeed="random" />
    <vehicle id="17" type="Volkswagen" route="27" depart="177" departLane="free" departSpeed="random" />
    <vehicle id="18" type="Volkswagen" route="1" depart="179" departLane="free" departSpeed="random" />
    <vehicle id="19" type="Volkswagen" route="23" depart="196" departLane="free" departSpeed="random" />
    <vehicle id="20" type="Volkswagen" route="1" depart="221" departLane="free" departSpeed="random" />
    <vehicle id="21" type="Volkswagen" route="35" depart="222" departLane="free" departSpeed="random" />
    <vehicle id="22" type="Volkswagen" route="1" depart="223" departLane="free" departSpeed="random" />
    <vehicle id="23" type="Volkswagen" route="1" depart="230" departLane="free" departSpeed="random" />
    <vehicle id="24" type="Volkswagen" route="31" depart="242" departLane="free" departSpeed="random" />
    <vehicle id="25" type="Volkswagen" route="12" depart="244" departLane="free" departSpeed="random" />
    <vehicle id="26" type="Volkswagen" route="12" depart="254" departLane="free" departSpeed="random" />
    <vehicle id="27" type="Volkswagen" route="36" depart="257" departLane="free" departSpeed="random" />
    <vehicle id="28" type="Volkswagen" route="38" depart="260" departLane="free" departSpeed="random" />
    <vehicle id="29" type="Volkswagen" route="49" depart="262" departLane="free" departSpeed="random" />
    <vehicle id="30" type="Volkswagen" route="50" depart="295" departLane="free" departSpeed="random" />
    <vehicle id="31" type="Volkswagen" route="47" depart="301" departLane="free" departSpeed="random" />
    <vehicle id="32" type="Volkswagen" route="12" depart="302" departLane="free" departSpeed="random" />
    <vehicle id="33" type="Volkswagen" route="44" depart="307" departLane="free" departSpeed="random" />
    <vehicle id="34" type="Volkswagen" route="14" depart="309" departLane="free" departSpeed="random" />
    <vehicle id="35" type="Volkswagen" route="1" depart="330" departLane="free" departSpeed="random" />
    <vehicle id="36" type="Volkswagen" route="50" depart="345" departLane="free" departSpeed="random" />
    <vehicle id="37" type="Volkswagen" route="12" depart="349" departLane="free" departSpeed="random" />
    <vehicle id="38" type="Volkswagen" route="50" depart="352" departLane="free" departSpeed="random" />
    <vehicle id="39" type="Volkswagen" route="48" depart="362" departLane="free" departSpeed="random" />
    <vehicle id="40" type="Volkswagen" route="44" depart="375" departLane="free" departSpeed="random" />
    <vehicle id="41" type="Volkswagen" route="29" depart="390" departLane="free" departSpeed="random" />
    <vehicle id="42" type="Volkswagen" route="26" depart="405" departLane="free" departSpeed="random" />
    <vehicle id="43" type="Volkswagen" route="44" depart="418" departLane="free" departSpeed="random" />
    <vehicle id="44" type="Volkswagen" route="29" depart="421" departLane="free" departSpeed="random" />
    <vehicle id="45" type="Volkswagen" route="32" depart="423" departLane="free" departSpeed="random" />
    <vehicle id="46" type="Volkswagen" route="32" depart="439" departLane="free" departSpeed="random" />
    <vehicle id="47" type="Volkswagen" route="14" depart="454" departLane="free" departSpeed="random" />
    <vehicle id="48" type="Volkswagen" route="1" depart="463" departLane="free" departSpeed="random" />
    <vehicle id="49" type="Volkswagen" route="41" depart="463" departLane="free" departSpeed="random" />
    <vehicle id="50" type="Volkswagen" route="2" depart="490" departLane="free" departSpeed="random" />
    <vehicle id="51" type="Volkswagen" route="41" depart="508" departLane="free" departSpeed="random" />
    <vehicle id="52" type="Volkswagen" route="35" depart="517" departLane="free" departSpeed="random" />
    <vehicle id="53" type="Volkswagen" route="26" depart="521" departLane="free" departSpeed="random" />
    <vehicle id="54" type="Volkswagen" route="14" depart="532" departLane="free" departSpeed="random" />
    <vehicle id="55" type="Volkswagen" route="51" depart="536" departLane="free" departSpeed="random" />
    <vehicle id="56" type="Volkswagen" route="37" depart="555" departLane="free" departSpeed="random" />
    <vehicle id="57" type="Volkswagen" route="38" depart="560" departLane="free" departSpeed="random" />
    <vehicle id="58" type="Volkswagen" route="29" depart="579" departLane="free" departSpeed="random" />
    <vehicle id="59" type="Volkswagen" route="47" depart="583" departLane="free" departSpeed="random" />
    <vehicle id="60" type="Volkswagen" route="35" depart="591" departLane="free" departSpeed="random" />
    <vehicle id="61" type="Volkswagen" route="29" depart="593" departLane="free" departSpeed="random" />
    <vehicle id="62" type="Volkswagen" route="12" depart="596" departLane="free" departSpeed="random" />
    <vehicle id="63" type="Volkswagen" route="12" depart="606" departLane="free" departSpeed="random" />
    <vehicle id="64" type="Volkswagen" route="34" depart="619" departLane="free" departSpeed="random" />
    <vehicle id="65" type="Volkswagen" route="12" depart="626" departLane="free" departSpeed="random" />
    <vehicle id="66" type="Volkswagen" route="26" depart="627" departLane="free" departSpeed="random" />
    <vehicle id="67" type="Volkswagen" route="41" depart="639" departLane="free" departSpeed="random" />
    <vehicle id="68" type="Volkswagen" route="39" depart="649" departLane="free" departSpeed="random" />
    <vehicle id="69" type="Volkswagen" route="31" depart="655" departLane="free" departSpeed="random" />
    <vehicle id="70" type="Volkswagen" route="29" depart="665" departLane="free" departSpeed="random" />
    <vehicle id="71" type="Volkswagen" route="32" depart="668" departLane="free" departSpeed="random" />
    <vehicle id="72" type="Volkswagen" route="50" depart="669" departLane="free" departSpeed="random" />
    <vehicle id="73" type="Volkswagen" route="41" depart="670" departLane="free" departSpeed="random" />
    <vehicle id="74" type="Volkswagen" route="38" depart="677" departLane="free" departSpeed="random" />
    <vehicle id="75" type="Volkswagen" route="12" depart="682" departLane="free" departSpeed="random" />
    <vehicle id="76" type="Volkswagen" route="1" depart="683" departLane="free" departSpeed="random" />
    <vehicle id="77" type="Volkswagen" route="50" depart="690" departLane="free" departSpeed="random" />
    <vehicle id="78" type="Volkswagen" route="23" depart="691" departLane="free" departSpeed="random" />
    <vehicle id="79" type="Volkswagen" route="44" depart="701" departLane="free" departSpeed="random" />
    <vehicle id="80" type="Volkswagen" route="29" depart="709" departLane="free" departSpeed="random" />
    <vehicle id="81" type="Volkswagen" route="1" depart="713" departLane="free" departSpeed="random" />
    <vehicle id="82" type="Volkswagen" route="1" depart="720" departLane="free" departSpeed="random" />
    <vehicle id="83" type="Volkswagen" route="23" depart="722" departLane="free" departSpeed="random" />
    <vehicle id="84" type="Volkswagen" route="35" depart="722" departLane="free" departSpeed="random" />
    <vehicle id="85" type="Volkswagen" route="46" depart="728" departLane="free" departSpeed="random" />
    <vehicle id="86" type="Volkswagen" route="50" depart="728" departLane="free" departSpeed="random" />
    <vehicle id="87" type="Volkswagen" route="1" depart="733" departLane="free" departSpeed="random" />
    <vehicle id="88" type="Volkswagen" route="48" depart="757" departLane="free" departSpeed="random" />
    <vehicle id="89" type="Volkswagen" route="41" depart="759" departLane="free" departSpeed="random" />
    <vehicle id="90" type="Volkswagen" route="12" depart="774" departLane="free" departSpeed="random" />
    <vehicle id="91" type="Volkswagen" route="12" depart="783" departLane="free" departSpeed="random" />
    <vehicle id="92" type="Volkswagen" route="32" depart="801" departLane="free" departSpeed="random" />
    <vehicle id="93" type="Volkswagen" route="1" depart="803" departLane="free" departSpeed="random" />
    <vehicle id="94" type="Volkswagen" route="35" depart="815" departLane="free" departSpeed="random" />
    <vehicle id="95" type="Volkswagen" route="35" depart="817" departLane="free" departSpeed="random" />
    <vehicle id="96" type="Volkswagen" route="13" depart="826" departLane="free" departSpeed="random" />
    <vehicle id="97" type="Volkswagen" route="1" depart="842" departLane="free" departSpeed="random" />
    <vehicle id="98" type="Volkswagen" route="34" depart="848" departLane="free" departSpeed="random" />
    <vehicle id="99" type="Volkswagen" route="35" depart="858" departLane="free" departSpeed="random" />
    <vehicle id="100" type="Volkswagen" route="1" depart="859" departLane="free" departSpeed="random" />
    <vehicle id="101" type="Volkswagen" route="38" depart="860" departLane="free" departSpeed="random" />
    <vehicle id="102" type="Volkswagen" route="23" depart="872" departLane="free" departSpeed="random" />
    <vehicle id="103" type="Volkswagen" route="50" depart="873" departLane="free" departSpeed="random" />
    <vehicle id="104" type="Volkswagen" route="1" depart="875" departLane="free" departSpeed="random" />
    <vehicle id="105" type="Volkswagen" route="47" depart="878" departLane="free" departSpeed="random" />
    <vehicle id="106" type="Volkswagen" route="1" depart="881" departLane="free" departSpeed="random" />
    <vehicle id="107" type="Volkswagen" route="32" depart="900" departLane="free" departSpeed="random" />
    <vehicle id="108" type="Volkswagen" route="12" depart="928" departLane="free" departSpeed="random" />
    <vehicle id="109" type="Volkswagen" route="41" depart="928" departLane="free" departSpeed="random" />
    <vehicle id="110" type="Volkswagen" route="47" depart="928" departLane="free" departSpeed="random" />
    <vehicle id="111" type="Volkswagen" route="41" depart="932" departLane="free" departSpeed="random" />
    <vehicle id="112" type="Volkswagen" route="29" depart="938" departLane="free" departSpeed="random" />
    <vehicle id="113" type="Volkswagen" route="41" depart="946" departLane="free" departSpeed="random" />
    <vehicle id="114" type="Volkswagen" route="44" depart="947" departLane="free" departSpeed="random" />
    <vehicle id="115" type="Volkswagen" route="44" depart="953" departLane="free" departSpeed="random" />
    <vehicle id="116" type="Volkswagen" route="12" depart="987" departLane="free" departSpeed="random" />
    <vehicle id="117" type="Volkswagen" route="26" depart="1021" departLane="free" departSpeed="random" />
    <vehicle id="118" type="Volkswagen" route="1" depart="1037" departLane="free" departSpeed="random" />
    <vehicle id="119" type="Volkswagen" route="32" depart="1043" departLane="free" departSpeed="random" />
    <vehicle id="120" type="Volkswagen" route="50" depart="1045" departLane="free" departSpeed="random" />
    <vehicle id="121" type="Volkswagen" route="23" depart="1046" departLane="free" departSpeed="random" />
    <vehicle id="122" type="Volkswagen" route="2" depart="1084" departLane="free" departSpeed="random" />
    <vehicle id="123" type="Volkswagen" route="23" depart="1102" departLane="free" departSpeed="random" />
    <vehicle id="124" type="Volkswagen" route="1" depart="1111" departLane="free" departSpeed="random" />
    <vehicle id="125" type="Volkswagen" route="44" depart="1115" departLane="free" departSpeed="random" />
    <vehicle id="126" type="Volkswagen" route="1" depart="1116" departLane="free" departSpeed="random" />
    <vehicle id="127" type="Volkswagen" route="1" depart="1123" departLane="free" departSpeed="random" />
    <vehicle id="128" type="Volkswagen" route="26" depart="1124" departLane="free" departSpeed="random" />
    <vehicle id="129" type="Volkswagen" route="50" depart="1127" departLane="free" departSpeed="random" />
    <vehicle id="130" type="Volkswagen" route="47" depart="1148" departLane="free" departSpeed="random" />
    <vehicle id="131" type="Volkswagen" route="30" depart="1152" departLane="free" departSpeed="random" />
    <vehicle id="132" type="Volkswagen" route="1" depart="1190" departLane="free" departSpeed="random" />
    <vehicle id="133" type="Volkswagen" route="44" depart="1200" departLane="free" departSpeed="random" />
    <vehicle id="134" type="Volkswagen" route="12" depart="1208" departLane="free" departSpeed="random" />
    <vehicle id="135" type="Volkswagen" route="14" depart="1209" departLane="free" departSpeed="random" />
    <vehicle id="136" type="Volkswagen" route="12" depart="1212" departLane="free" departSpeed="random" />
    <vehicle id="137" type="Volkswagen" route="35" depart="1212" departLane="free" departSpeed="random" />
    <vehicle id="138" type="Volkswagen" route="35" depart="1220" departLane="free" departSpeed="random" />
    <vehicle id="139" type="Volkswagen" route="29" depart="1222" departLane="free" departSpeed="random" />
    <vehicle id="140" type="Volkswagen" route="12" depart="1227" departLane="free" departSpeed="random" />
    <vehicle id="141" type="Volkswagen" route="34" depart="1248" departLane="free" departSpeed="random" />
    <vehicle id="142" type="Volkswagen" route="1" depart="1258" departLane="free" departSpeed="random" />
    <vehicle id="143" type="Volkswagen" route="38" depart="1262" departLane="free" departSpeed="random" />
    <vehicle id="144" type="Volkswagen" route="50" depart="1262" departLane="free" departSpeed="random" />
    <vehicle id="145" type="Volkswagen" route="1" depart="1264" departLane="free" departSpeed="random" />
    <vehicle id="146" type="Volkswagen" route="35" depart="1273" departLane="free" departSpeed="random" />
    <vehicle id="147" type="Volkswagen" route="2" depart="1289" departLane="free" departSpeed="random" />
    <vehicle id="148" type="Volkswagen" route="12" depart="1293" departLane="free" departSpeed="random" />
    <vehicle id="149" type="Volkswagen" route="1" depart="1298" departLane="free" departSpeed="random" />
    <vehicle id="150" type="Volkswagen" route="37" depart="1316" departLane="free" departSpeed="random" />
    <vehicle id="151" type="Volkswagen" route="35" depart="1327" departLane="free" departSpeed="random" />
    <vehicle id="152" type="Volkswagen" route="23" depart="1329" departLane="free" departSpeed="random" />
    <vehicle id="153" type="Volkswagen" route="12" depart="1332" departLane="free" departSpeed="random" />
    <vehicle id="154" type="Volkswagen" route="47" depart="1332" departLane="free" departSpeed="random" />
    <vehicle id="155" type="Volkswagen" route="3" depart="1343" departLane="free" departSpeed="random" />
    <vehicle id="156" type="Volkswagen" route="18" depart="1352" departLane="free" departSpeed="random" />
    <vehicle id="157" type="Volkswagen" route="12" depart="1355" departLane="free" departSpeed="random" />
    <vehicle id="158" type="Volkswagen" route="13" depart="1361" departLane="free" departSpeed="random" />
    <vehicle id="159" type="Volkswagen" route="1" depart="1379" departLane="free" departSpeed="random" />
    <vehicle id="160" type="Volkswagen" route="1" depart="1402" departLane="free" departSpeed="random" />
    <vehicle id="161" type="Volkswagen" route="41" depart="1415" departLane="free" departSpeed="random" />
    <vehicle id="162" type="Volkswagen" route="29" depart="1418" departLane="free" departSpeed="random" />
    <vehicle id="163" type="Volkswagen" route="41" depart="1429" departLane="free" departSpeed="random" />
    <vehicle id="164" type="Volkswagen" route="7" depart="1430" departLane="free" departSpeed="random" />
    <vehicle id="165" type="Volkswagen" route="44" depart="1446" departLane="free" departSpeed="random" />
    <vehicle id="166" type="Volkswagen" route="32" depart="1460" departLane="free" departSpeed="random" />
    <vehicle id="167" type="Volkswagen" route="10" depart="1462" departLane="free" departSpeed="random" />
    <vehicle id="168" type="Volkswagen" route="12" depart="1478" departLane="free" departSpeed="random" />
    <vehicle id="169" type="Volkswagen" route="29" depart="1485" departLane="free" departSpeed="random" />
    <vehicle id="170" type="Volkswagen" route="1" depart="1494" departLane="free" departSpeed="random" />
    <vehicle id="171" type="Volkswagen" route="38" depart="1495" departLane="free" departSpeed="random" />
    <vehicle id="172" type="Volkswagen" route="1" depart="1500" departLane="free" departSpeed="random" />
    <vehicle id="173" type="Volkswagen" route="52" depart="1505" departLane="free" departSpeed="random" />
    <vehicle id="174" type="Volkswagen" route="3" depart="1510" departLane="free" departSpeed="random" />
    <vehicle id="175" type="Volkswagen" route="12" depart="1527" departLane="free" departSpeed="random" />
    <vehicle id="176" type="Volkswagen" route="1" depart="1531" departLane="free" departSpeed="random" />
    <vehicle id="177" type="Volkswagen" route="44" depart="1541" departLane="free" departSpeed="random" />
    <vehicle id="178" type="Volkswagen" route="1" depart="1546" departLane="free" departSpeed="random" />
    <vehicle id="179" type="Volkswagen" route="12" depart="1549" departLane="free" departSpeed="random" />
    <vehicle id="180" type="Volkswagen" route="35" depart="1559" departLane="free" departSpeed="random" />
    <vehicle id="181" type="Volkswagen" route="12" depart="1560" departLane="free" departSpeed="random" />
    <vehicle id="182" type="Volkswagen" route="47" depart="1563" departLane="free" departSpeed="random" />
    <vehicle id="183" type="Volkswagen" route="1" depart="1570" departLane="free" departSpeed="random" />
    <vehicle id="184" type="Volkswagen" route="47" depart="1575" departLane="free" departSpeed="random" />
    <vehicle id="185" type="Volkswagen" route="1" depart="1581" departLane="free" departSpeed="random" />
    <vehicle id="186" type="Volkswagen" route="12" depart="1595" departLane="free" departSpeed="random" />
    <vehicle id="187" type="Volkswagen" route="26" depart="1600" departLane="free" departSpeed="random" />
    <vehicle id="188" type="Volkswagen" route="41" depart="1608" departLane="free" departSpeed="random" />
    <vehicle id="189" type="Volkswagen" route="12" depart="1617" departLane="free" departSpeed="random" />
    <vehicle id="190" type="Volkswagen" route="23" depart="1627" departLane="free" departSpeed="random" />
    <vehicle id="191" type="Volkswagen" route="26" depart="1630" departLane="free" departSpeed="random" />
    <vehicle id="192" type="Volkswagen" route="44" depart="1630" departLane="free" departSpeed="random" />
    <vehicle id="193" type="Volkswagen" route="29" depart="1650" departLane="free" departSpeed="random" />
    <vehicle id="194" type="Volkswagen" route="12" depart="1657" departLane="free" departSpeed="random" />
    <vehicle id="195" type="Volkswagen" route="1" depart="1681" departLane="free" departSpeed="random" />
    <vehicle id="196" type="Volkswagen" route="23" depart="1685" departLane="free" departSpeed="random" />
    <vehicle id="197" type="Volkswagen" route="12" depart="1690" departLane="free" departSpeed="random" />
    <vehicle id="198" type="Volkswagen" route="44" depart="1697" departLane="free" departSpeed="random" />
    <vehicle id="199" type="Volkswagen" route="47" depart="1708" departLane="free" departSpeed="random" />
    <vehicle id="200" type="Volkswagen" route="13" depart="1709" departLane="free" departSpeed="random" />
    <vehicle id="201" type="Volkswagen" route="50" depart="1727" departLane="free" departSpeed="random" />
    <vehicle id="202" type="Volkswagen" route="38" depart="1734" departLane="free" departSpeed="random" />
    <vehicle id="203" type="Volkswagen" route="1" depart="1738" departLane="free" departSpeed="random" />
    <vehicle id="204" type="Volkswagen" route="12" depart="1749" departLane="free" departSpeed="random" />
    <vehicle id="205" type="Volkswagen" route="1" depart="1765" departLane="free" departSpeed="random" />