<routes>
        
    <vType id="Volkswagen" accel="2.3" decel="4.5" sigma="0.5" length="4.0" maxSpeed="60" color="124,252,0" vClass="private" emissionClass="HBEFA3/PC_G_EU4"/>  

    <!-- ========================================== -->
    <!-- HORIZONTAL ROUTES: West to East (from a)  -->
    <!-- ========================================== -->

    <!--  Horizontal Arterial - 5 Intersections @ 1km spacing -->
    <!-- 


                        c              e              g              i              k
                        │              │              │              │              │
                        9             13             26             30             34
                        │              │              │              │              │
                    10             14             27             31             35
                        │              │              │              │              │
    a────1────2────[3]────4────5──[6]────7───20─[17]───21───22─[18]───23───24─[19]───25────8────b
                        │              │              │              │              │
                    11             15             28             32             36
                        │              │              │              │              │
                    12             16             29             33             37
                        │              │              │              │              │
                        d              f              h              j              l


    x=-1100        x=0          x=1000         x=2000         x=3000         x=4000        x=5100
    (Entry)      TLS-1          TLS-2          TLS-3          TLS-4          TLS-5         (Exit)

    -->
    
    <!-- a to b (full through) -->
    <route id="1" edges="a_1 1_2 2_3 3_4 4_5 5_6 6_7 7_20 20_17 17_21 21_22 22_18 18_23 23_24 24_19 19_25 25_8 8_b"/>
    
    <!-- a to vertical exits at TLS-1 -->
    <route id="2" edges="a_1 1_2 2_3 3_10 10_9 9_c"/>
    <route id="3" edges="a_1 1_2 2_3 3_11 11_12 12_d"/>
    
    <!-- a to vertical exits at TLS-2 -->
    <route id="4" edges="a_1 1_2 2_3 3_4 4_5 5_6 6_14 14_13 13_e"/>
    <route id="5" edges="a_1 1_2 2_3 3_4 4_5 5_6 6_15 15_16 16_f"/>
    
    <!-- a to vertical exits at TLS-3 -->
    <route id="6" edges="a_1 1_2 2_3 3_4 4_5 5_6 6_7 7_20 20_17 17_27 27_26 26_g"/>
    <route id="7" edges="a_1 1_2 2_3 3_4 4_5 5_6 6_7 7_20 20_17 17_28 28_29 29_h"/>
    
    <!-- a to vertical exits at TLS-4 -->
    <route id="8" edges="a_1 1_2 2_3 3_4 4_5 5_6 6_7 7_20 20_17 17_21 21_22 22_18 18_31 31_30 30_i"/>
    <route id="9" edges="a_1 1_2 2_3 3_4 4_5 5_6 6_7 7_20 20_17 17_21 21_22 22_18 18_32 32_33 33_j"/>
    
    <!-- a to vertical exits at TLS-5 -->
    <route id="10" edges="a_1 1_2 2_3 3_4 4_5 5_6 6_7 7_20 20_17 17_21 21_22 22_18 18_23 23_24 24_19 19_35 35_34 34_k"/>
    <route id="11" edges="a_1 1_2 2_3 3_4 4_5 5_6 6_7 7_20 20_17 17_21 21_22 22_18 18_23 23_24 24_19 19_36 36_37 37_l"/>

    <!-- ========================================== -->
    <!-- HORIZONTAL ROUTES: East to West (from b)  -->
    <!-- ========================================== -->
    
    <!-- b to a (full through) -->
    <route id="12" edges="b_8 8_25 25_19 19_24 24_23 23_18 18_22 22_21 21_17 17_20 20_7 7_6 6_5 5_4 4_3 3_2 2_1 1_a"/>
    
    <!-- b to vertical exits at TLS-5 -->
    <route id="13" edges="b_8 8_25 25_19 19_35 35_34 34_k"/>
    <route id="14" edges="b_8 8_25 25_19 19_36 36_37 37_l"/>
    
    <!-- b to vertical exits at TLS-4 -->
    <route id="15" edges="b_8 8_25 25_19 19_24 24_23 23_18 18_31 31_30 30_i"/>
    <route id="16" edges="b_8 8_25 25_19 19_24 24_23 23_18 18_32 32_33 33_j"/>
    
    <!-- b to vertical exits at TLS-3 -->
    <route id="17" edges="b_8 8_25 25_19 19_24 24_23 23_18 18_22 22_21 21_17 17_27 27_26 26_g"/>
    <route id="18" edges="b_8 8_25 25_19 19_24 24_23 23_18 18_22 22_21 21_17 17_28 28_29 29_h"/>
    
    <!-- b to vertical exits at TLS-2 -->
    <route id="19" edges="b_8 8_25 25_19 19_24 24_23 23_18 18_22 22_21 21_17 17_20 20_7 7_6 6_14 14_13 13_e"/>
    <route id="20" edges="b_8 8_25 25_19 19_24 24_23 23_18 18_22 22_21 21_17 17_20 20_7 7_6 6_15 15_16 16_f"/>
    
    <!-- b to vertical exits at TLS-1 -->
    <route id="21" edges="b_8 8_25 25_19 19_24 24_23 23_18 18_22 22_21 21_17 17_20 20_7 7_6 6_5 5_4 4_3 3_10 10_9 9_c"/>
    <route id="22" edges="b_8 8_25 25_19 19_24 24_23 23_18 18_22 22_21 21_17 17_20 20_7 7_6 6_5 5_4 4_3 3_11 11_12 12_d"/>

    <!-- ========================================== -->
    <!-- VERTICAL ROUTES @ TLS-1: c and d          -->
    <!-- ========================================== -->
    
    <!-- From c (south entry) -->
    <route id="23" edges="c_9 9_10 10_3 3_11 11_12 12_d"/>
    <route id="24" edges="c_9 9_10 10_3 3_2 2_1 1_a"/>
    <route id="25" edges="c_9 9_10 10_3 3_4 4_5 5_6 6_7 7_20 20_17 17_21 21_22 22_18 18_23 23_24 24_19 19_25 25_8 8_b"/>
    
    <!-- From d (north entry) -->
    <route id="26" edges="d_12 12_11 11_3 3_10 10_9 9_c"/>
    <route id="27" edges="d_12 12_11 11_3 3_2 2_1 1_a"/>
    <route id="28" edges="d_12 12_11 11_3 3_4 4_5 5_6 6_7 7_20 20_17 17_21 21_22 22_18 18_23 23_24 24_19 19_25 25_8 8_b"/>

    <!-- ========================================== -->
    <!-- VERTICAL ROUTES @ TLS-2: e and f          -->
    <!-- ========================================== -->
    
    <!-- From e (south entry) -->
    <route id="29" edges="e_13 13_14 14_6 6_15 15_16 16_f"/>
    <route id="30" edges="e_13 13_14 14_6 6_5 5_4 4_3 3_2 2_1 1_a"/>
    <route id="31" edges="e_13 13_14 14_6 6_7 7_20 20_17 17_21 21_22 22_18 18_23 23_24 24_19 19_25 25_8 8_b"/>
    
    <!-- From f (north entry) -->
    <route id="32" edges="f_16 16_15 15_6 6_14 14_13 13_e"/>
    <route id="33" edges="f_16 16_15 15_6 6_5 5_4 4_3 3_2 2_1 1_a"/>
    <route id="34" edges="f_16 16_15 15_6 6_7 7_20 20_17 17_21 21_22 22_18 18_23 23_24 24_19 19_25 25_8 8_b"/>

    <!-- ========================================== -->
    <!-- VERTICAL ROUTES @ TLS-3: g and h          -->
    <!-- ========================================== -->
    
    <!-- From g (south entry) -->
    <route id="35" edges="g_26 26_27 27_17 17_28 28_29 29_h"/>
    <route id="36" edges="g_26 26_27 27_17 17_20 20_7 7_6 6_5 5_4 4_3 3_2 2_1 1_a"/>
    <route id="37" edges="g_26 26_27 27_17 17_21 21_22 22_18 18_23 23_24 24_19 19_25 25_8 8_b"/>
    
    <!-- From h (north entry) -->
    <route id="38" edges="h_29 29_28 28_17 17_27 27_26 26_g"/>
    <route id="39" edges="h_29 29_28 28_17 17_20 20_7 7_6 6_5 5_4 4_3 3_2 2_1 1_a"/>
    <route id="40" edges="h_29 29_28 28_17 17_21 21_22 22_18 18_23 23_24 24_19 19_25 25_8 8_b"/>

    <!-- ========================================== -->
    <!-- VERTICAL ROUTES @ TLS-4: i and j          -->
    <!-- ========================================== -->
    
    <!-- From i (south entry) -->
    <route id="41" edges="i_30 30_31 31_18 18_32 32_33 33_j"/>
    <route id="42" edges="i_30 30_31 31_18 18_22 22_21 21_17 17_20 20_7 7_6 6_5 5_4 4_3 3_2 2_1 1_a"/>
    <route id="43" edges="i_30 30_31 31_18 18_23 23_24 24_19 19_25 25_8 8_b"/>
    
    <!-- From j (north entry) -->
    <route id="44" edges="j_33 33_32 32_18 18_31 31_30 30_i"/>
    <route id="45" edges="j_33 33_32 32_18 18_22 22_21 21_17 17_20 20_7 7_6 6_5 5_4 4_3 3_2 2_1 1_a"/>
    <route id="46" edges="j_33 33_32 32_18 18_23 23_24 24_19 19_25 25_8 8_b"/>

    <!-- ========================================== -->
    <!-- VERTICAL ROUTES @ TLS-5: k and l          -->
    <!-- ========================================== -->
    
    <!-- From k (south entry) -->
    <route id="47" edges="k_34 34_35 35_19 19_36 36_37 37_l"/>
    <route id="48" edges="k_34 34_35 35_19 19_24 24_23 23_18 18_22 22_21 21_17 17_20 20_7 7_6 6_5 5_4 4_3 3_2 2_1 1_a"/>
    <route id="49" edges="k_34 34_35 35_19 19_25 25_8 8_b"/>
    
    <!-- From l (north entry) -->
    <route id="50" edges="l_37 37_36 36_19 19_35 35_34 34_k"/>
    <route id="51" edges="l_37 37_36 36_19 19_24 24_23 23_18 18_22 22_21 21_17 17_20 20_7 7_6 6_5 5_4 4_3 3_2 2_1 1_a"/>
    <route id="52" edges="l_37 37_36 36_19 19_25 25_8 8_b"/>

        
    <vehicle id="0" type="Volkswagen" route="30" depart="2" departLane="free" departSpeed="random" />
    <vehicle id="1" type="Volkswagen" route="27" depart="7" departLane="free" departSpeed="random" />
    <vehicle id="2" type="Volkswagen" route="35" depart="10" departLane="free" departSpeed="random" />
    <vehicle id="3" type="Volkswagen" route="52" depart="17" departLane="free" departSpeed="random" />
    <vehicle id="4" type="Volkswagen" route="38" depart="40" departLane="free" departSpeed="random" />
    <vehicle id="5" type="Volkswagen" route="26" depart="47" departLane="free" departSpeed="random" />
    <vehicle id="6" type="Volkswagen" route="50" depart="64" departLane="free" departSpeed="random" />
    <vehicle id="7" type="Volkswagen" route="44" depart="65" departLane="free" departSpeed="random" />
    <vehicle id="8" type="Volkswagen" route="38" depart="85" departLane="free" departSpeed="random" />
    <vehicle id="9" type="Volkswagen" route="1" depart="103" departLane="free" departSpeed="random" />
    <vehicle id="10" type="Volkswagen" route="47" depart="130" departLane="free" departSpeed="random" />
    <vehicle id="11" type="Volkswagen" route="35" depart="180" departLane="free" departSpeed="random" />
    <vehicle id="12" type="Volkswagen" route="41" depart="180" departLane="free" departSpeed="random" />
    <vehicle id="13" type="Volkswagen" route="13" depart="199" departLane="free" departSpeed="random" />
    <vehicle id="14" type="Volkswagen" route="44" depart="218" departLane="free" departSpeed="random" />
    <vehicle id="15" type="Volkswagen" route="38" depart="238" departLane="free" departSpeed="random" />
    <vehicle id="16" type="Volkswagen" route="1" depart="245" departLane="free" departSpeed="random" />
    <vehicle id="17" type="Volkswagen" route="29" depart="255" departLane="free" departSpeed="random" />
    <vehicle id="18" type="Volkswagen" route="35" depart="260" departLane="free" departSpeed="random" />
    <vehicle id="19" type="Volkswagen" route="1" depart="267" departLane="free" departSpeed="random" />
    <vehicle id="20" type="Volkswagen" route="1" depart="289" departLane="free" departSpeed="random" />
    <vehicle id="21" type="Volkswagen" route="12" depart="292" departLane="free" departSpeed="random" />
    <vehicle id="22" type="Volkswagen" route="50" depart="304" departLane="free" departSpeed="random" />
    <vehicle id="23" type="Volkswagen" route="41" depart="305" departLane="free" departSpeed="random" />
    <vehicle id="24" type="Volkswagen" route="47" depart="306" departLane="free" departSpeed="random" />
    <vehicle id="25" type="Volkswagen" route="26" depart="316" departLane="free" departSpeed="random" />
    <vehicle id="26" type="Volkswagen" route="41" depart="318" departLane="free" departSpeed="random" />
    <vehicle id="27" type="Volkswagen" route="1" depart="340" departLane="free" departSpeed="random" />
    <vehicle id="28" type="Volkswagen" route="12" depart="347" departLane="free" departSpeed="random" />
    <vehicle id="29" type="Volkswagen" route="29" depart="360" departLane="free" departSpeed="random" />
    <vehicle id="30" type="Volkswagen" route="1" depart="372" departLane="free" departSpeed="random" />
    <vehicle id="31" type="Volkswagen" route="1" depart="375" departLane="free" departSpeed="random" />
    <vehicle id="32" type="Volkswagen" route="12" depart="375" departLane="free" departSpeed="random" />
    <vehicle id="33" type="Volkswagen" route="26" depart="394" departLane="free" departSpeed="random" />
    <vehicle id="34" type="Volkswagen" route="32" depart="394" departLane="free" departSpeed="random" />
    <vehicle id="35" type="Volkswagen" route="1" depart="396" departLane="free" departSpeed="random" />
    <vehicle id="36" type="Volkswagen" route="47" depart="408" departLane="free" departSpeed="random" />
    <vehicle id="37" type="Volkswagen" route="13" depart="410" departLane="free" departSpeed="random" />
    <vehicle id="38" type="Volkswagen" route="13" depart="431" departLane="free" departSpeed="random" />
    <vehicle id="39" type="Volkswagen" route="1" depart="434" departLane="free" departSpeed="random" />
    <vehicle id="40" type="Volkswagen" route="12" depart="441" departLane="free" departSpeed="random" />
    <vehicle id="41" type="Volkswagen" route="12" depart="444" departLane="free" departSpeed="random" />
    <vehicle id="42" type="Volkswagen" route="36" depart="444" departLane="free" departSpeed="random" />
    <vehicle id="43" type="Volkswagen" route="38" depart="459" departLane="free" departSpeed="random" />
    <vehicle id="44" type="Volkswagen" route="1" depart="471" departLane="free" departSpeed="random" />
    <vehicle id="45" type="Volkswagen" route="37" depart="473" departLane="free" departSpeed="random" />
    <vehicle id="46" type="Volkswagen" route="32" depart="482" departLane="free" departSpeed="random" />
    <vehicle id="47" type="Volkswagen" route="44" depart="487" departLane="free" departSpeed="random" />
    <vehicle id="48" type="Volkswagen" route="35" depart="500" departLane="free" departSpeed="random" />
    <vehicle id="49" type="Volkswagen" route="48" depart="502" departLane="free" departSpeed="random" />
    <vehicle id="50" type="Volkswagen" route="23" depart="503" departLane="free" departSpeed="random" />
    <vehicle id="51" type="Volkswagen" route="41" depart="507" departLane="free" departSpeed="random" />
    <vehicle id="52" type="Volkswagen" route="42" depart="509" departLane="free" departSpeed="random" />
    <vehicle id="53" type="Volkswagen" route="12" depart="525" departLane="free" departSpeed="random" />
    <vehicle id="54" type="Volkswagen" route="29" depart="531" departLane="free" departSpeed="random" />
    <vehicle id="55" type="Volkswagen" route="41" depart="533" departLane="free" departSpeed="random" />
    <vehicle id="56" type="Volkswagen" route="33" depart="542" departLane="free" departSpeed="random" />
    <vehicle id="57" type="Volkswagen" route="23" depart="551" departLane="free" departSpeed="random" />
    <vehicle id="58" type="Volkswagen" route="1" depart="554" departLane="free" departSpeed="random" />
    <vehicle id="59" type="Volkswagen" route="44" depart="555" departLane="free" departSpeed="random" />
    <vehicle id="60" type="Volkswagen" route="41" depart="560" departLane="free" departSpeed="random" />
    <vehicle id="61" type="Volkswagen" route="13" depart="562" departLane="free" departSpeed="random" />
    <vehicle id="62" type="Volkswagen" route="41" depart="575" departLane="free" departSpeed="random" />
    <vehicle id="63" type="Volkswagen" route="12" depart="596" departLane="free" departSpeed="random" />
    <vehicle id="64" type="Volkswagen" route="1" depart="611" departLane="free" departSpeed="random" />
    <vehicle id="65" type="Volkswagen" route="12" depart="614" departLane="free" departSpeed="random" />
    <vehicle id="66" type="Volkswagen" route="1" depart="628" departLane="free" departSpeed="random" />
    <vehicle id="67" type="Volkswagen" route="1" depart="629" departLane="free" departSpeed="random" />
    <vehicle id="68" type="Volkswagen" route="45" depart="635" departLane="free" departSpeed="random" />
    <vehicle id="69" type="Volkswagen" route="12" depart="639" departLane="free" departSpeed="random" />
    <vehicle id="70" type="Volkswagen" route="1" depart="651" departLane="free" departSpeed="random" />
    <vehicle id="71" type="Volkswagen" route="1" depart="654" departLane="free" departSpeed="random" />
    <vehicle id="72" type="Volkswagen" route="29" depart="658" departLane="free" departSpeed="random" />
    <vehicle id="73" type="Volkswagen" route="50" depart="681" departLane="free" departSpeed="random" />
    <vehicle id="74" type="Volkswagen" route="1" depart="686" departLane="free" departSpeed="random" />
    <vehicle id="75" type="Volkswagen" route="14" depart="697" departLane="free" departSpeed="random" />
    <vehicle id="76" type="Volkswagen" route="12" depart="704" departLane="free" departSpeed="random" />
    <vehicle id="77" type="Volkswagen" route="12" depart="707" departLane="free" departSpeed="random" />
    <vehicle id="78" type="Volkswagen" route="18" depart="711" departLane="free" departSpeed="random" />
    <vehicle id="79" type="Volkswagen" route="32" depart="712" departLane="free" departSpeed="random" />
    <vehicle id="80" type="Volkswagen" route="12" depart="728" departLane="free" departSpeed="random" />
    <vehicle id="81" type="Volkswagen" route="29" depart="734" departLane="free" departSpeed="random" />
    <vehicle id="82" type="Volkswagen" route="26" depart="739" departLane="free" departSpeed="random" />
    <vehicle id="83" type="Volkswagen" route="38" depart="743" departLane="free" departSpeed="random" />
    <vehicle id="84" type="Volkswagen" route="2" depart="745" departLane="free" departSpeed="random" />
    <vehicle id="85" type="Volkswagen" route="30" depart="746" departLane="free" departSpeed="random" />
    <vehicle id="86" type="Volkswagen" route="26" depart="759" departLane="free" departSpeed="random" />
    <vehicle id="87" type="Volkswagen" route="32" depart="768" departLane="free" departSpeed="random" />
    <vehicle id="88" type="Volkswagen" route="29" depart="778" departLane="free" departSpeed="random" />
    <vehicle id="89" type="Volkswagen" route="1" depart="803" departLane="free" departSpeed="random" />
    <vehicle id="90" type="Volkswagen" route="1" depart="811" departLane="free" departSpeed="random" />
    <vehicle id="91" type="Volkswagen" route="50" depart="811" departLane="free" departSpeed="random" />
    <vehicle id="92" type="Volkswagen" route="50" depart="814" departLane="free" departSpeed="random" />
    <vehicle id="93" type="Volkswagen" route="38" depart="826" departLane="free" departSpeed="random" />
    <vehicle id="94" type="Volkswagen" route="32" depart="827" departLane="free" departSpeed="random" />
    <vehicle id="95" type="Volkswagen" route="1" depart="830" departLane="free" departSpeed="random" />
    <vehicle id="96" type="Volkswagen" route="7" depart="832" departLane="free" departSpeed="random" />
    <vehicle id="97" type="Volkswagen" route="26" depart="832" departLane="free" departSpeed="random" />
    <vehicle id="98" type="Volkswagen" route="47" depart="834" departLane="free" departSpeed="random" />
    <vehicle id="99" type="Volkswagen" route="50" depart="840" departLane="free" departSpeed="random" />
    <vehicle id="100" type="Volkswagen" route="41" depart="845" departLane="free" departSpeed="random" />
    <vehicle id="101" type="Volkswagen" route="50" depart="849" departLane="free" departSpeed="random" />
    <vehicle id="102" type="Volkswagen" route="26" depart="856" departLane="free" departSpeed="random" />
    <vehicle id="103" type="Volkswagen" route="26" depart="860" departLane="free" departSpeed="random" />
    <vehicle id="104" type="Volkswagen" route="29" depart="872" departLane="free" departSpeed="random" />
    <vehicle id="105" type="Volkswagen" route="47" depart="885" departLane="free" departSpeed="random" />
    <vehicle id="106" type="Volkswagen" route="34" depart="888" departLane="free" departSpeed="random" />
    <vehicle id="107" type="Volkswagen" route="47" depart="894" departLane="free" departSpeed="random" />
    <vehicle id="108" type="Volkswagen" route="47" depart="900" departLane="free" departSpeed="random" />
    <vehicle id="109" type="Volkswagen" route="26" depart="905" departLane="free" departSpeed="random" />
    <vehicle id="110" type="Volkswagen" route="1" depart="909" departLane="free" departSpeed="random" />
    <vehicle id="111" type="Volkswagen" route="14" depart="924" departLane="free" departSpeed="random" />
    <vehicle id="112" type="Volkswagen" route="42" depart="931" departLane="free" departSpeed="random" />
    <vehicle id="113" type="Volkswagen" route="1" depart="960" departLane="free" departSpeed="random" />
    <vehicle id="114" type="Volkswagen" route="2" depart="987" departLane="free" departSpeed="random" />
    <vehicle id="115" type="Volkswagen" route="1" depart="1010" departLane="free" departSpeed="random" />
    <vehicle id="116" type="Volkswagen" route="23" depart="1011" departLane="free" departSpeed="random" />
    <vehicle id="117" type="Volkswagen" route="35" depart="1015" departLane="free" departSpeed="random" />
    <vehicle id="118" type="Volkswagen" route="10" depart="1020" departLane="free" departSpeed="random" />
    <vehicle id="119" type="Volkswagen" route="1" depart="1039" departLane="free" departSpeed="random" />
    <vehicle id="120" type="Volkswagen" route="26" depart="1042" departLane="free" departSpeed="random" />
    <vehicle id="121" type="Volkswagen" route="29" depart="1044" departLane="free" departSpeed="random" />
    <vehicle id="122" type="Volkswagen" route="29" depart="1050" departLane="free" departSpeed="random" />
    <vehicle id="123" type="Volkswagen" route="12" depart="1057" departLane="free" departSpeed="random" />
    <vehicle id="124" type="Volkswagen" route="36" depart="1065" departLane="free" departSpeed="random" />
    <vehicle id="125" type="Volkswagen" route="47" depart="1081" departLane="free" departSpeed="random" />
    <vehicle id="126" type="Volkswagen" route="26" depart="1125" departLane="free" departSpeed="random" />
    <vehicle id="127" type="Volkswagen" route="26" depart="1144" departLane="free" departSpeed="random" />
    <vehicle id="128" type="Volkswagen" route="3" depart="1153" departLane="free" departSpeed="random" />
    <vehicle id="129" type="Volkswagen" route="41" depart="1154" departLane="free" departSpeed="random" />
    <vehicle id="130" type="Volkswagen" route="1" depart="1158" departLane="free" departSpeed="random" />
    <vehicle id="131" type="Volkswagen" route="12" depart="1161" departLane="free" departSpeed="random" />
    <vehicle id="132" type="Volkswagen" route="1" depart="1167" departLane="free" departSpeed="random" />
    <vehicle id="133" type="Volkswagen" route="23" depart="1170" departLane="free" departSpeed="random" />
    <vehicle id="134" type="Volkswagen" route="13" depart="1176" departLane="free" departSpeed="random" />
    <vehicle id="135" type="Volkswagen" route="12" depart="1195" departLane="free" departSpeed="random" />
    <vehicle id="136" type="Volkswagen" route="1" depart="1211" departLane="free" departSpeed="random" />
    <vehicle id="137" type="Volkswagen" route="1" depart="1223" departLane="free" departSpeed="random" />
    <vehicle id="138" type="Volkswagen" route="35" depart="1227" departLane="free" departSpeed="random" />
    <vehicle id="139" type="Volkswagen" route="26" depart="1229" departLane="free" departSpeed="random" />
    <vehicle id="140" type="Volkswagen" route="35" depart="1244" departLane="free" departSpeed="random" />
    <vehicle id="141" type="Volkswagen" route="44" depart="1251" departLane="free" departSpeed="random" />
    <vehicle id="142" type="Volkswagen" route="1" depart="1255" departLane="free" departSpeed="random" />
    <vehicle id="143" type="Volkswagen" route="26" depart="1276" departLane="free" departSpeed="random" />
    <vehicle id="144" type="Volkswagen" route="41" depart="1284" departLane="free" departSpeed="random" />
    <vehicle id="145" type="Volkswagen" route="2" depart="1286" departLane="free" departSpeed="random" />
    <vehicle id="146" type="Volkswagen" route="12" depart="1288" departLane="free" departSpeed="random" />
    <vehicle id="147" type="Volkswagen" route="26" depart="1294" departLane="free" departSpeed="random" />
    <vehicle id="148" type="Volkswagen" route="38" depart="1318" departLane="free" departSpeed="random" />
    <vehicle id="149" type="Volkswagen" route="12" depart="1320" departLane="free" departSpeed="random" />
    <vehicle id="150" type="Volkswagen" route="14" depart="1327" departLane="free" departSpeed="random" />
    <vehicle id="151" type="Volkswagen" route="50" depart="1330" departLane="free" departSpeed="random" />
    <vehicle id="152" type="Volkswagen" route="31" depart="1334" departLane="free" departSpeed="random" />
    <vehicle id="153" type="Volkswagen" route="47" depart="1335" departLane="free" departSpeed="random" />
    <vehicle id="154" type="Volkswagen" route="3" depart="1338" departLane="free" departSpeed="random" />
    <vehicle id="155" type="Volkswagen" route="1" depart="1346" departLane="free" departSpeed="random" />
    <vehicle id="156" type="Volkswagen" route="50" depart="1371" departLane="free" departSpeed="random" />
    <vehicle id="157" type="Volkswagen" route="30" depart="1372" departLane="free" departSpeed="random" />
    <vehicle id="158" type="Volkswagen" route="44" depart="1388" departLane="free" departSpeed="random" />
    <vehicle id="159" type="Volkswagen" route="47" depart="1389" departLane="free" departSpeed="random" />
    <vehicle id="160" type="Volkswagen" route="1" depart="1393" departLane="free" departSpeed="random" />
    <vehicle id="161" type="Volkswagen" route="30" depart="1394" departLane="free" departSpeed="random" />
    <vehicle id="162" type="Volkswagen" route="12" depart="1399" departLane="free" departSpeed="random" />
    <vehicle id="163" type="Volkswagen" route="12" depart="1408" departLane="free" departSpeed="random" />
    <vehicle id="164" type="Volkswagen" route="44" depart="1414" departLane="free" departSpeed="random" />
    <vehicle id="165" type="Volkswagen" route="35" depart="1432" departLane="free" departSpeed="random" />
    <vehicle id="166" type="Volkswagen" route="39" depart="1442" departLane="free" departSpeed="random" />
    <vehicle id="167" type="Volkswagen" route="12" depart="1452" departLane="free" departSpeed="random" />
    <vehicle id="168" type="Volkswagen" route="23" depart="1457" departLane="free" departSpeed="random" />
    <vehicle id="169" type="Volkswagen" route="41" depart="1461" departLane="free" departSpeed="random" />
    <vehicle id="170" type="Volkswagen" route="47" depart="1464" departLane="free" departSpeed="random" />
    <vehicle id="171" type="Volkswagen" route="37" depart="1498" departLane="free" departSpeed="random" />
    <vehicle id="172" type="Volkswagen" route="41" depart="1502" departLane="free" departSpeed="random" />
    <vehicle id="173" type="Volkswagen" route="26" depart="1538" departLane="free" departSpeed="random" />
    <vehicle id="174" type="Volkswagen" route="1" depart="1568" departLane="free" departSpeed="random" />
    <vehicle id="175" type="Volkswagen" route="12" depart="1570" departLane="free" departSpeed="random" />
    <vehicle id="176" type="Volkswagen" route="12" depart="1578" departLane="free" departSpeed="random" />
    <vehicle id="177" type="Volkswagen" route="7" depart="1580" departLane="free" departSpeed="random" />
    <vehicle id="178" type="Volkswagen" route="11" depart="1600" departLane="free" departSpeed="random" />
    <vehicle id="179" type="Volkswagen" route="32" depart="1622" departLane="free" departSpeed="random" />
    <vehicle id="180" type="Volkswagen" route="1" depart="1644" departLane="free" departSpeed="random" />
    <vehicle id="181" type="Volkswagen" route="32" depart="1644" departLane="free" departSpeed="random" />
    <vehicle id="182" type="Volkswagen" route="12" depart="1655" departLane="free" departSpeed="random" />
    <vehicle id="183" type="Volkswagen" route="50" depart="1660" departLane="free" departSpeed="random" />
    <vehicle id="184" type="Volkswagen" route="26" depart="1665" departLane="free" departSpeed="random" />
    <vehicle id="185" type="Volkswagen" route="26" depart="1671" departLane="free" departSpeed="random" />
    <vehicle id="186" type="Volkswagen" route="3" depart="1685" departLane="free" departSpeed="random" />
    <vehicle id="187" type="Volkswagen" route="44" depart="1685" departLane="free" departSpeed="random" />
    <vehicle id="188" type="Volkswagen" route="12" depart="1688" departLane="free" departSpeed="random" />
    <vehicle id="189" type="Volkswagen" route="41" depart="1695" departLane="free" departSpeed="random" />
    <vehicle id="190" type="Volkswagen" route="34" depart="1724" departLane="free" departSpeed="random" />
    <vehicle id="191" type="Volkswagen" route="37" depart="1736" departLane="free" departSpeed="random" />
    <vehicle id="192" type="Volkswagen" route="47" depart="1739" departLane="free" departSpeed="random" />
    <vehicle id="193" type="Volkswagen" route="12" depart="1742" departLane="free" departSpeed="random" />
    <vehicle id="194" type="Volkswagen" route="3" depart="1754" departLane="free" departSpeed="random" />
    <vehicle id="195" type="Volkswagen" route="1" depart="1761" departLane="free" departSpeed="random" />
    <vehicle id="196" type="Volkswagen" route="44" depart="1778" departLane="free" departSpeed="random" />
    <vehicle id="197" type="Volkswagen" route="35" depart="1779" departLane="free" departSpeed="random" />
    <vehicle id="198" type="Volkswagen" route="42" depart="1783" departLane="free" departSpeed="random" />
    <vehicle id="199" type="Volkswagen" route="12" depart="1786" departLane="free" departSpeed="random" />
    <vehicle id="200" type="Volkswagen" route="47" depart="1792" departLane="free" departSpeed="random" />
    <vehicle id="201" type="Volkswagen" route="24" depart="1798" departLane="free" departSpeed="random" />
    <vehicle id="202" type="Volkswagen" route="1" depart="1802" departLane="free" departSpeed="random" />
    <vehicle id="203" type="Volkswagen" route="12" depart="1812" departLane="free" departSpeed="random" />
    <vehicle id="204" type="Volkswagen" route="24" depart="1829" departLane="free" departSpeed="random" />
    <vehicle id="205" type="Volkswagen" route="31" depart="1837" departLane="free" departSpeed="random" />