<routes>
        
    <vType id="Volkswagen" accel="2.3" decel="4.5" sigma="0.5" length="4.0" maxSpeed="60" color="124,252,0" vClass="private" emissionClass="HBEFA3/PC_G_EU4"/>  

    <!-- ========================================== -->
    <!-- HORIZONTAL ROUTES: West to East (from a)  -->
    <!-- ========================================== -->

    <!--  Horizontal Arterial - 5 Intersections @ 1km spacing -->
    <!-- 


                        c              e              g              i              k
                        │              │              │              │              │
                        9             13             26             30             34
                        │              │              │              │              │
                    10             14             27             31             35
                        │              │              │              │              │
    a────1────2────[3]────4────5──[6]────7───20─[17]───21───22─[18]───23───24─[19]───25────8────b
                        │              │              │              │              │
                    11             15             28             32             36
                        │              │              │              │              │
                    12             16             29             33             37
                        │              │              │              │              │
                        d              f              h              j              l


    x=-1100        x=0          x=1000         x=2000         x=3000         x=4000        x=5100
    (Entry)      TLS-1          TLS-2          TLS-3          TLS-4          TLS-5         (Exit)

    -->
    
    <!-- a to b (full through) -->
    <route id="1" edges="a_1 1_2 2_3 3_4 4_5 5_6 6_7 7_20 20_17 17_21 21_22 22_18 18_23 23_24 24_19 19_25 25_8 8_b"/>
    
    <!-- a to vertical exits at TLS-1 -->
    <route id="2" edges="a_1 1_2 2_3 3_10 10_9 9_c"/>
    <route id="3" edges="a_1 1_2 2_3 3_11 11_12 12_d"/>
    
    <!-- a to vertical exits at TLS-2 -->
    <route id="4" edges="a_1 1_2 2_3 3_4 4_5 5_6 6_14 14_13 13_e"/>
    <route id="5" edges="a_1 1_2 2_3 3_4 4_5 5_6 6_15 15_16 16_f"/>
    
    <!-- a to vertical exits at TLS-3 -->
    <route id="6" edges="a_1 1_2 2_3 3_4 4_5 5_6 6_7 7_20 20_17 17_27 27_26 26_g"/>
    <route id="7" edges="a_1 1_2 2_3 3_4 4_5 5_6 6_7 7_20 20_17 17_28 28_29 29_h"/>
    
    <!-- a to vertical exits at TLS-4 -->
    <route id="8" edges="a_1 1_2 2_3 3_4 4_5 5_6 6_7 7_20 20_17 17_21 21_22 22_18 18_31 31_30 30_i"/>
    <route id="9" edges="a_1 1_2 2_3 3_4 4_5 5_6 6_7 7_20 20_17 17_21 21_22 22_18 18_32 32_33 33_j"/>
    
    <!-- a to vertical exits at TLS-5 -->
    <route id="10" edges="a_1 1_2 2_3 3_4 4_5 5_6 6_7 7_20 20_17 17_21 21_22 22_18 18_23 23_24 24_19 19_35 35_34 34_k"/>
    <route id="11" edges="a_1 1_2 2_3 3_4 4_5 5_6 6_7 7_20 20_17 17_21 21_22 22_18 18_23 23_24 24_19 19_36 36_37 37_l"/>

    <!-- ========================================== -->
    <!-- HORIZONTAL ROUTES: East to West (from b)  -->
    <!-- ========================================== -->
    
    <!-- b to a (full through) -->
    <route id="12" edges="b_8 8_25 25_19 19_24 24_23 23_18 18_22 22_21 21_17 17_20 20_7 7_6 6_5 5_4 4_3 3_2 2_1 1_a"/>
    
    <!-- b to vertical exits at TLS-5 -->
    <route id="13" edges="b_8 8_25 25_19 19_35 35_34 34_k"/>
    <route id="14" edges="b_8 8_25 25_19 19_36 36_37 37_l"/>
    
    <!-- b to vertical exits at TLS-4 -->
    <route id="15" edges="b_8 8_25 25_19 19_24 24_23 23_18 18_31 31_30 30_i"/>
    <route id="16" edges="b_8 8_25 25_19 19_24 24_23 23_18 18_32 32_33 33_j"/>
    
    <!-- b to vertical exits at TLS-3 -->
    <route id="17" edges="b_8 8_25 25_19 19_24 24_23 23_18 18_22 22_21 21_17 17_27 27_26 26_g"/>
    <route id="18" edges="b_8 8_25 25_19 19_24 24_23 23_18 18_22 22_21 21_17 17_28 28_29 29_h"/>
    
    <!-- b to vertical exits at TLS-2 -->
    <route id="19" edges="b_8 8_25 25_19 19_24 24_23 23_18 18_22 22_21 21_17 17_20 20_7 7_6 6_14 14_13 13_e"/>
    <route id="20" edges="b_8 8_25 25_19 19_24 24_23 23_18 18_22 22_21 21_17 17_20 20_7 7_6 6_15 15_16 16_f"/>
    
    <!-- b to vertical exits at TLS-1 -->
    <route id="21" edges="b_8 8_25 25_19 19_24 24_23 23_18 18_22 22_21 21_17 17_20 20_7 7_6 6_5 5_4 4_3 3_10 10_9 9_c"/>
    <route id="22" edges="b_8 8_25 25_19 19_24 24_23 23_18 18_22 22_21 21_17 17_20 20_7 7_6 6_5 5_4 4_3 3_11 11_12 12_d"/>

    <!-- ========================================== -->
    <!-- VERTICAL ROUTES @ TLS-1: c and d          -->
    <!-- ========================================== -->
    
    <!-- From c (south entry) -->
    <route id="23" edges="c_9 9_10 10_3 3_11 11_12 12_d"/>
    <route id="24" edges="c_9 9_10 10_3 3_2 2_1 1_a"/>
    <route id="25" edges="c_9 9_10 10_3 3_4 4_5 5_6 6_7 7_20 20_17 17_21 21_22 22_18 18_23 23_24 24_19 19_25 25_8 8_b"/>
    
    <!-- From d (north entry) -->
    <route id="26" edges="d_12 12_11 11_3 3_10 10_9 9_c"/>
    <route id="27" edges="d_12 12_11 11_3 3_2 2_1 1_a"/>
    <route id="28" edges="d_12 12_11 11_3 3_4 4_5 5_6 6_7 7_20 20_17 17_21 21_22 22_18 18_23 23_24 24_19 19_25 25_8 8_b"/>

    <!-- ========================================== -->
    <!-- VERTICAL ROUTES @ TLS-2: e and f          -->
    <!-- ========================================== -->
    
    <!-- From e (south entry) -->
    <route id="29" edges="e_13 13_14 14_6 6_15 15_16 16_f"/>
    <route id="30" edges="e_13 13_14 14_6 6_5 5_4 4_3 3_2 2_1 1_a"/>
    <route id="31" edges="e_13 13_14 14_6 6_7 7_20 20_17 17_21 21_22 22_18 18_23 23_24 24_19 19_25 25_8 8_b"/>
    
    <!-- From f (north entry) -->
    <route id="32" edges="f_16 16_15 15_6 6_14 14_13 13_e"/>
    <route id="33" edges="f_16 16_15 15_6 6_5 5_4 4_3 3_2 2_1 1_a"/>
    <route id="34" edges="f_16 16_15 15_6 6_7 7_20 20_17 17_21 21_22 22_18 18_23 23_24 24_19 19_25 25_8 8_b"/>

    <!-- ========================================== -->
    <!-- VERTICAL ROUTES @ TLS-3: g and h          -->
    <!-- ========================================== -->
    
    <!-- From g (south entry) -->
    <route id="35" edges="g_26 26_27 27_17 17_28 28_29 29_h"/>
    <route id="36" edges="g_26 26_27 27_17 17_20 20_7 7_6 6_5 5_4 4_3 3_2 2_1 1_a"/>
    <route id="37" edges="g_26 26_27 27_17 17_21 21_22 22_18 18_23 23_24 24_19 19_25 25_8 8_b"/>
    
    <!-- From h (north entry) -->
    <route id="38" edges="h_29 29_28 28_17 17_27 27_26 26_g"/>
    <route id="39" edges="h_29 29_28 28_17 17_20 20_7 7_6 6_5 5_4 4_3 3_2 2_1 1_a"/>
    <route id="40" edges="h_29 29_28 28_17 17_21 21_22 22_18 18_23 23_24 24_19 19_25 25_8 8_b"/>

    <!-- ========================================== -->
    <!-- VERTICAL ROUTES @ TLS-4: i and j          -->
    <!-- ========================================== -->
    
    <!-- From i (south entry) -->
    <route id="41" edges="i_30 30_31 31_18 18_32 32_33 33_j"/>
    <route id="42" edges="i_30 30_31 31_18 18_22 22_21 21_17 17_20 20_7 7_6 6_5 5_4 4_3 3_2 2_1 1_a"/>
    <route id="43" edges="i_30 30_31 31_18 18_23 23_24 24_19 19_25 25_8 8_b"/>
    
    <!-- From j (north entry) -->
    <route id="44" edges="j_33 33_32 32_18 18_31 31_30 30_i"/>
    <route id="45" edges="j_33 33_32 32_18 18_22 22_21 21_17 17_20 20_7 7_6 6_5 5_4 4_3 3_2 2_1 1_a"/>
    <route id="46" edges="j_33 33_32 32_18 18_23 23_24 24_19 19_25 25_8 8_b"/>

    <!-- ========================================== -->
    <!-- VERTICAL ROUTES @ TLS-5: k and l          -->
    <!-- ========================================== -->
    
    <!-- From k (south entry) -->
    <route id="47" edges="k_34 34_35 35_19 19_36 36_37 37_l"/>
    <route id="48" edges="k_34 34_35 35_19 19_24 24_23 23_18 18_22 22_21 21_17 17_20 20_7 7_6 6_5 5_4 4_3 3_2 2_1 1_a"/>
    <route id="49" edges="k_34 34_35 35_19 19_25 25_8 8_b"/>
    
    <!-- From l (north entry) -->
    <route id="50" edges="l_37 37_36 36_19 19_35 35_34 34_k"/>
    <route id="51" edges="l_37 37_36 36_19 19_24 24_23 23_18 18_22 22_21 21_17 17_20 20_7 7_6 6_5 5_4 4_3 3_2 2_1 1_a"/>
    <route id="52" edges="l_37 37_36 36_19 19_25 25_8 8_b"/>

        
    <vehicle id="0" type="Volkswagen" route="16" depart="3" departLane="free" departSpeed="random" />
    <vehicle id="1" type="Volkswagen" route="1" depart="5" departLane="free" departSpeed="random" />
    <vehicle id="2" type="Volkswagen" route="29" depart="11" departLane="free" departSpeed="random" />
    <vehicle id="3" type="Volkswagen" route="47" depart="12" departLane="free" departSpeed="random" />
    <vehicle id="4" type="Volkswagen" route="2" depart="20" departLane="free" departSpeed="random" />
    <vehicle id="5" type="Volkswagen" route="50" depart="34" departLane="free" departSpeed="random" />
    <vehicle id="6" type="Volkswagen" route="12" depart="48" departLane="free" departSpeed="random" />
    <vehicle id="7" type="Volkswagen" route="25" depart="48" departLane="free" departSpeed="random" />
    <vehicle id="8" type="Volkswagen" route="23" depart="50" departLane="free" departSpeed="random" />
    <vehicle id="9" type="Volkswagen" route="35" depart="52" departLane="free" departSpeed="random" />
    <vehicle id="10" type="Volkswagen" route="1" depart="62" departLane="free" departSpeed="random" />
    <vehicle id="11" type="Volkswagen" route="44" depart="65" departLane="free" departSpeed="random" />
    <vehicle id="12" type="Volkswagen" route="2" depart="72" departLane="free" departSpeed="random" />
    <vehicle id="13" type="Volkswagen" route="12" depart="72" departLane="free" departSpeed="random" />
    <vehicle id="14" type="Volkswagen" route="38" depart="72" departLane="free" departSpeed="random" />
    <vehicle id="15" type="Volkswagen" route="38" depart="73" departLane="free" departSpeed="random" />
    <vehicle id="16" type="Volkswagen" route="50" depart="73" departLane="free" departSpeed="random" />
    <vehicle id="17" type="Volkswagen" route="12" depart="75" departLane="free" departSpeed="random" />
    <vehicle id="18" type="Volkswagen" route="47" depart="94" departLane="free" departSpeed="random" />
    <vehicle id="19" type="Volkswagen" route="2" depart="95" departLane="free" departSpeed="random" />
    <vehicle id="20" type="Volkswagen" route="1" depart="96" departLane="free" departSpeed="random" />
    <vehicle id="21" type="Volkswagen" route="45" depart="100" departLane="free" departSpeed="random" />
    <vehicle id="22" type="Volkswagen" route="38" depart="101" departLane="free" departSpeed="random" />
    <vehicle id="23" type="Volkswagen" route="12" depart="102" departLane="free" departSpeed="random" />
    <vehicle id="24" type="Volkswagen" route="29" depart="103" departLane="free" departSpeed="random" />
    <vehicle id="25" type="Volkswagen" route="12" depart="104" departLane="free" departSpeed="random" />
    <vehicle id="26" type="Volkswagen" route="23" depart="105" departLane="free" departSpeed="random" />
    <vehicle id="27" type="Volkswagen" route="26" depart="107" departLane="free" departSpeed="random" />
    <vehicle id="28" type="Volkswagen" route="12" depart="112" departLane="free" departSpeed="random" />
    <vehicle id="29" type="Volkswagen" route="32" depart="112" departLane="free" departSpeed="random" />
    <vehicle id="30" type="Volkswagen" route="23" depart="115" departLane="free" departSpeed="random" />
    <vehicle id="31" type="Volkswagen" route="26" depart="120" departLane="free" departSpeed="random" />
    <vehicle id="32" type="Volkswagen" route="23" depart="127" departLane="free" departSpeed="random" />
    <vehicle id="33" type="Volkswagen" route="29" depart="127" departLane="free" departSpeed="random" />
    <vehicle id="34" type="Volkswagen" route="50" depart="141" departLane="free" departSpeed="random" />
    <vehicle id="35" type="Volkswagen" route="47" depart="146" departLane="free" departSpeed="random" />
    <vehicle id="36" type="Volkswagen" route="23" depart="150" departLane="free" departSpeed="random" />
    <vehicle id="37" type="Volkswagen" route="32" depart="150" departLane="free" departSpeed="random" />
    <vehicle id="38" type="Volkswagen" route="2" depart="154" departLane="free" departSpeed="random" />
    <vehicle id="39" type="Volkswagen" route="13" depart="154" departLane="free" departSpeed="random" />
    <vehicle id="40" type="Volkswagen" route="1" depart="158" departLane="free" departSpeed="random" />
    <vehicle id="41" type="Volkswagen" route="1" depart="159" departLane="free" departSpeed="random" />
    <vehicle id="42" type="Volkswagen" route="12" depart="165" departLane="free" departSpeed="random" />
    <vehicle id="43" type="Volkswagen" route="13" depart="170" departLane="free" departSpeed="random" />
    <vehicle id="44" type="Volkswagen" route="12" depart="176" departLane="free" departSpeed="random" />
    <vehicle id="45" type="Volkswagen" route="12" depart="177" departLane="free" departSpeed="random" />
    <vehicle id="46" type="Volkswagen" route="23" depart="178" departLane="free" departSpeed="random" />
    <vehicle id="47" type="Volkswagen" route="27" depart="180" departLane="free" departSpeed="random" />
    <vehicle id="48" type="Volkswagen" route="12" depart="193" departLane="free" departSpeed="random" />
    <vehicle id="49" type="Volkswagen" route="44" depart="194" departLane="free" departSpeed="random" />
    <vehicle id="50" type="Volkswagen" route="1" depart="196" departLane="free" departSpeed="random" />
    <vehicle id="51" type="Volkswagen" route="12" depart="198" departLane="free" departSpeed="random" />
    <vehicle id="52" type="Volkswagen" route="29" depart="203" departLane="free" departSpeed="random" />
    <vehicle id="53" type="Volkswagen" route="2" depart="204" departLane="free" departSpeed="random" />
    <vehicle id="54" type="Volkswagen" route="21" depart="207" departLane="free" departSpeed="random" />
    <vehicle id="55" type="Volkswagen" route="23" depart="207" departLane="free" departSpeed="random" />
    <vehicle id="56" type="Volkswagen" route="12" depart="209" departLane="free" departSpeed="random" />
    <vehicle id="57" type="Volkswagen" route="14" depart="213" departLane="free" departSpeed="random" />
    <vehicle id="58" type="Volkswagen" route="32" depart="214" departLane="free" departSpeed="random" />
    <vehicle id="59" type="Volkswagen" route="42" depart="214" departLane="free" departSpeed="random" />
    <vehicle id="60" type="Volkswagen" route="12" depart="228" departLane="free" departSpeed="random" />
    <vehicle id="61" type="Volkswagen" route="12" depart="230" departLane="free" departSpeed="random" />
    <vehicle id="62" type="Volkswagen" route="1" depart="236" departLane="free" departSpeed="random" />
    <vehicle id="63" type="Volkswagen" route="1" depart="240" departLane="free" departSpeed="random" />
    <vehicle id="64" type="Volkswagen" route="26" depart="245" departLane="free" departSpeed="random" />
    <vehicle id="65" type="Volkswagen" route="29" depart="245" departLane="free" departSpeed="random" />
    <vehicle id="66" type="Volkswagen" route="23" depart="249" departLane="free" departSpeed="random" />
    <vehicle id="67" type="Volkswagen" route="32" depart="254" departLane="free" departSpeed="random" />
    <vehicle id="68" type="Volkswagen" route="3" depart="256" departLane="free" departSpeed="random" />
    <vehicle id="69" type="Volkswagen" route="1" depart="259" departLane="free" departSpeed="random" />
    <vehicle id="70" type="Volkswagen" route="1" depart="260" departLane="free" departSpeed="random" />
    <vehicle id="71" type="Volkswagen" route="29" depart="260" departLane="free" departSpeed="random" />
    <vehicle id="72" type="Volkswagen" route="1" depart="262" departLane="free" departSpeed="random" />
    <vehicle id="73" type="Volkswagen" route="13" depart="265" departLane="free" departSpeed="random" />
    <vehicle id="74" type="Volkswagen" route="12" depart="269" departLane="free" departSpeed="random" />
    <vehicle id="75" type="Volkswagen" route="35" depart="270" departLane="free" departSpeed="random" />
    <vehicle id="76" type="Volkswagen" route="48" depart="271" departLane="free" departSpeed="random" />
    <vehicle id="77" type="Volkswagen" route="12" depart="275" departLane="free" departSpeed="random" />
    <vehicle id="78" type="Volkswagen" route="12" depart="280" departLane="free" departSpeed="random" />
    <vehicle id="79" type="Volkswagen" route="12" depart="281" departLane="free" departSpeed="random" />
    <vehicle id="80" type="Volkswagen" route="27" depart="282" departLane="free" departSpeed="random" />
    <vehicle id="81" type="Volkswagen" route="32" depart="283" departLane="free" departSpeed="random" />
    <vehicle id="82" type="Volkswagen" route="3" depart="285" departLane="free" departSpeed="random" />
    <vehicle id="83" type="Volkswagen" route="12" depart="290" departLane="free" departSpeed="random" />
    <vehicle id="84" type="Volkswagen" route="41" depart="296" departLane="free" departSpeed="random" />
    <vehicle id="85" type="Volkswagen" route="2" depart="297" departLane="free" departSpeed="random" />
    <vehicle id="86" type="Volkswagen" route="38" depart="297" departLane="free" departSpeed="random" />
    <vehicle id="87" type="Volkswagen" route="12" depart="299" departLane="free" departSpeed="random" />
    <vehicle id="88" type="Volkswagen" route="27" depart="304" departLane="free" departSpeed="random" />
    <vehicle id="89" type="Volkswagen" route="41" depart="305" departLane="free" departSpeed="random" />
    <vehicle id="90" type="Volkswagen" route="41" depart="310" departLane="free" departSpeed="random" />
    <vehicle id="91" type="Volkswagen" route="23" depart="311" departLane="free" departSpeed="random" />
    <vehicle id="92" type="Volkswagen" route="1" depart="314" departLane="free" departSpeed="random" />
    <vehicle id="93" type="Volkswagen" route="1" depart="322" departLane="free" departSpeed="random" />
    <vehicle id="94" type="Volkswagen" route="1" depart="323" departLane="free" departSpeed="random" />
    <vehicle id="95" type="Volkswagen" route="13" depart="324" departLane="free" departSpeed="random" />
    <vehicle id="96" type="Volkswagen" route="36" depart="326" departLane="free" departSpeed="random" />
    <vehicle id="97" type="Volkswagen" route="20" depart="327" departLane="free" departSpeed="random" />
    <vehicle id="98" type="Volkswagen" route="38" depart="327" departLane="free" departSpeed="random" />
    <vehicle id="99" type="Volkswagen" route="35" depart="334" departLane="free" departSpeed="random" />
    <vehicle id="100" type="Volkswagen" route="12" depart="335" departLane="free" departSpeed="random" />
    <vehicle id="101" type="Volkswagen" route="12" depart="337" departLane="free" departSpeed="random" />
    <vehicle id="102" type="Volkswagen" route="2" depart="342" departLane="free" departSpeed="random" />
    <vehicle id="103" type="Volkswagen" route="41" depart="344" departLane="free" departSpeed="random" />
    <vehicle id="104" type="Volkswagen" route="2" depart="349" departLane="free" departSpeed="random" />
    <vehicle id="105" type="Volkswagen" route="2" depart="351" departLane="free" departSpeed="random" />
    <vehicle id="106" type="Volkswagen" route="3" depart="352" departLane="free" departSpeed="random" />
    <vehicle id="107" type="Volkswagen" route="48" depart="354" departLane="free" departSpeed="random" />
    <vehicle id="108" type="Volkswagen" route="12" depart="359" departLane="free" departSpeed="random" />
    <vehicle id="109" type="Volkswagen" route="23" depart="365" departLane="free" departSpeed="random" />
    <vehicle id="110" type="Volkswagen" route="38" depart="365" departLane="free" departSpeed="random" />
    <vehicle id="111" type="Volkswagen" route="50" depart="378" departLane="free" departSpeed="random" />
    <vehicle id="112" type="Volkswagen" route="38" depart="385" departLane="free" departSpeed="random" />
    <vehicle id="113" type="Volkswagen" route="23" depart="386" departLane="free" departSpeed="random" />
    <vehicle id="114" type="Volkswagen" route="48" depart="386" departLane="free" departSpeed="random" />
    <vehicle id="115" type="Volkswagen" route="14" depart="389" departLane="free" departSpeed="random" />
    <vehicle id="116" type="Volkswagen" route="12" depart="392" departLane="free" departSpeed="random" />
    <vehicle id="117" type="Volkswagen" route="48" depart="397" departLane="free" departSpeed="random" />
    <vehicle id="118" type="Volkswagen" route="23" depart="405" departLane="free" departSpeed="random" />
    <vehicle id="119" type="Volkswagen" route="50" depart="406" departLane="free" departSpeed="random" />
    <vehicle id="120" type="Volkswagen" route="38" depart="412" departLane="free" departSpeed="random" />
    <vehicle id="121" type="Volkswagen" route="41" depart="420" departLane="free" departSpeed="random" />
    <vehicle id="122" type="Volkswagen" route="47" depart="425" departLane="free" departSpeed="random" />
    <vehicle id="123" type="Volkswagen" route="12" depart="426" departLane="free" departSpeed="random" />
    <vehicle id="124" type="Volkswagen" route="47" depart="427" departLane="free" departSpeed="random" />
    <vehicle id="125" type="Volkswagen" route="12" depart="429" departLane="free" departSpeed="random" />
    <vehicle id="126" type="Volkswagen" route="50" depart="431" departLane="free" departSpeed="random" />
    <vehicle id="127" type="Volkswagen" route="1" depart="443" departLane="free" departSpeed="random" />
    <vehicle id="128" type="Volkswagen" route="12" depart="445" departLane="free" departSpeed="random" />
    <vehicle id="129" type="Volkswagen" route="47" depart="446" departLane="free" departSpeed="random" />
    <vehicle id="130" type="Volkswagen" route="1" depart="449" departLane="free" departSpeed="random" />
    <vehicle id="131" type="Volkswagen" route="29" depart="454" departLane="free" departSpeed="random" />
    <vehicle id="132" type="Volkswagen" route="47" depart="455" departLane="free" departSpeed="random" />
    <vehicle id="133" type="Volkswagen" route="1" depart="457" departLane="free" departSpeed="random" />
    <vehicle id="134" type="Volkswagen" route="35" depart="459" departLane="free" departSpeed="random" />
    <vehicle id="135" type="Volkswagen" route="1" depart="474" departLane="free" departSpeed="random" />
    <vehicle id="136" type="Volkswagen" route="27" depart="475" departLane="free" departSpeed="random" />
    <vehicle id="137" type="Volkswagen" route="38" depart="480" departLane="free" departSpeed="random" />
    <vehicle id="138" type="Volkswagen" route="44" depart="484" departLane="free" departSpeed="random" />
    <vehicle id="139" type="Volkswagen" route="3" depart="487" departLane="free" departSpeed="random" />
    <vehicle id="140" type="Volkswagen" route="12" depart="493" departLane="free" departSpeed="random" />
    <vehicle id="141" type="Volkswagen" route="1" depart="496" departLane="free" departSpeed="random" />
    <vehicle id="142" type="Volkswagen" route="1" depart="497" departLane="free" departSpeed="random" />
    <vehicle id="143" type="Volkswagen" route="14" depart="499" departLane="free" departSpeed="random" />
    <vehicle id="144" type="Volkswagen" route="38" depart="502" departLane="free" departSpeed="random" />
    <vehicle id="145" type="Volkswagen" route="50" depart="511" departLane="free" departSpeed="random" />
    <vehicle id="146" type="Volkswagen" route="12" depart="513" departLane="free" departSpeed="random" />
    <vehicle id="147" type="Volkswagen" route="37" depart="514" departLane="free" departSpeed="random" />
    <vehicle id="148" type="Volkswagen" route="51" depart="514" departLane="free" departSpeed="random" />
    <vehicle id="149" type="Volkswagen" route="29" depart="521" departLane="free" departSpeed="random" />
    <vehicle id="150" type="Volkswagen" route="23" depart="522" departLane="free" departSpeed="random" />
    <vehicle id="151" type="Volkswagen" route="47" depart="525" departLane="free" departSpeed="random" />
    <vehicle id="152" type="Volkswagen" route="1" depart="528" departLane="free" departSpeed="random" />
    <vehicle id="153" type="Volkswagen" route="2" depart="528" departLane="free" departSpeed="random" />
    <vehicle id="154" type="Volkswagen" route="3" depart="537" departLane="free" departSpeed="random" />
    <vehicle id="155" type="Volkswagen" route="50" depart="539" departLane="free" departSpeed="random" />
    <vehicle id="156" type="Volkswagen" route="12" depart="541" departLane="free" departSpeed="random" />
    <vehicle id="157" type="Volkswagen" route="29" depart="543" departLane="free" departSpeed="random" />
    <vehicle id="158" type="Volkswagen" route="29" depart="545" departLane="free" departSpeed="random" />
    <vehicle id="159" type="Volkswagen" route="30" depart="545" departLane="free" departSpeed="random" />
    <vehicle id="160" type="Volkswagen" route="32" depart="545" departLane="free" departSpeed="random" />
    <vehicle id="161" type="Volkswagen" route="26" depart="547" departLane="free" departSpeed="random" />
    <vehicle id="162" type="Volkswagen" route="13" depart="551" departLane="free" departSpeed="random" />
    <vehicle id="163" type="Volkswagen" route="50" depart="555" departLane="free" departSpeed="random" />
    <vehicle id="164" type="Volkswagen" route="38" depart="565" departLane="free" departSpeed="random" />
    <vehicle id="165" type="Volkswagen" route="50" depart="565" departLane="free" departSpeed="random" />
    <vehicle id="166" type="Volkswagen" route="26" depart="568" departLane="free" departSpeed="random" />
    <vehicle id="167" type="Volkswagen" route="51" depart="575" departLane="free" departSpeed="random" />
    <vehicle id="168" type="Volkswagen" route="29" depart="576" departLane="free" departSpeed="random" />
    <vehicle id="169" type="Volkswagen" route="1" depart="578" departLane="free" departSpeed="random" />
    <vehicle id="170" type="Volkswagen" route="29" depart="580" departLane="free" departSpeed="random" />
    <vehicle id="171" type="Volkswagen" route="1" depart="581" departLane="free" departSpeed="random" />
    <vehicle id="172" type="Volkswagen" route="41" depart="582" departLane="free" departSpeed="random" />
    <vehicle id="173" type="Volkswagen" route="1" depart="583" departLane="free" departSpeed="random" />
    <vehicle id="174" type="Volkswagen" route="24" depart="583" departLane="free" departSpeed="random" />
    <vehicle id="175" type="Volkswagen" route="1" depart="584" departLane="free" departSpeed="random" />
    <vehicle id="176" type="Volkswagen" route="41" depart="589" departLane="free" departSpeed="random" />
    <vehicle id="177" type="Volkswagen" route="12" depart="595" departLane="free" departSpeed="random" />
    <vehicle id="178" type="Volkswagen" route="12" depart="601" departLane="free" departSpeed="random" />
    <vehicle id="179" type="Volkswagen" route="13" depart="601" departLane="free" departSpeed="random" />
    <vehicle id="180" type="Volkswagen" route="1" depart="612" departLane="free" departSpeed="random" />
    <vehicle id="181" type="Volkswagen" route="47" depart="616" departLane="free" departSpeed="random" />
    <vehicle id="182" type="Volkswagen" route="41" depart="618" departLane="free" departSpeed="random" />
    <vehicle id="183" type="Volkswagen" route="3" depart="627" departLane="free" departSpeed="random" />
    <vehicle id="184" type="Volkswagen" route="1" depart="628" departLane="free" departSpeed="random" />
    <vehicle id="185" type="Volkswagen" route="35" depart="637" departLane="free" departSpeed="random" />
    <vehicle id="186" type="Volkswagen" route="12" depart="640" departLane="free" departSpeed="random" />
    <vehicle id="187" type="Volkswagen" route="12" depart="642" departLane="free" departSpeed="random" />
    <vehicle id="188" type="Volkswagen" route="1" depart="649" departLane="free" departSpeed="random" />
    <vehicle id="189" type="Volkswagen" route="41" depart="651" departLane="free" departSpeed="random" />
    <vehicle id="190" type="Volkswagen" route="12" depart="653" departLane="free" departSpeed="random" />
    <vehicle id="191" type="Volkswagen" route="1" depart="655" departLane="free" departSpeed="random" />
    <vehicle id="192" type="Volkswagen" route="1" depart="660" departLane="free" departSpeed="random" />
    <vehicle id="193" type="Volkswagen" route="44" depart="661" departLane="free" departSpeed="random" />
    <vehicle id="194" type="Volkswagen" route="44" depart="662" departLane="free" departSpeed="random" />
    <vehicle id="195" type="Volkswagen" route="26" depart="665" departLane="free" departSpeed="random" />
    <vehicle id="196" type="Volkswagen" route="12" depart="666" departLane="free" departSpeed="random" />
    <vehicle id="197" type="Volkswagen" route="12" depart="674" departLane="free" departSpeed="random" />
    <vehicle id="198" type="Volkswagen" route="23" depart="679" departLane="free" departSpeed="random" />
    <vehicle id="199" type="Volkswagen" route="1" depart="681" departLane="free" departSpeed="random" />
    <vehicle id="200" type="Volkswagen" route="12" depart="684" departLane="free" departSpeed="random" />
    <vehicle id="201" type="Volkswagen" route="32" depart="686" departLane="free" departSpeed="random" />
    <vehicle id="202" type="Volkswagen" route="39" depart="687" departLane="free" departSpeed="random" />
    <vehicle id="203" type="Volkswagen" route="1" depart="688" departLane="free" departSpeed="random" />
    <vehicle id="204" type="Volkswagen" route="12" depart="688" departLane="free" departSpeed="random" />
    <vehicle id="205" type="Volkswagen" route="16" depart="689" departLane="free" departSpeed="random" />
    <vehicle id="206" type="Volkswagen" route="11" depart="693" departLane="free" departSpeed="random" />